2019-11-18 08:34:02,922  INFO Gbl:63 JVM: 11.0.1; Oracle Corporation; mixed mode; 64-bit
2019-11-18 08:34:02,922  INFO Gbl:67 OS: Windows 10; 10.0; amd64
2019-11-18 08:34:02,922  INFO Gbl:70 CPU cores: 24
2019-11-18 08:34:02,922  INFO Gbl:71 max. Memory: 24576.0MB (25769803776B)
2019-11-18 08:34:02,922  INFO Gbl:109 MATSim-Build: r92f5a963d96c1378d104c07359ace3469f91ad77 (2019-04-10 11:10:17)
2019-11-18 08:34:02,938  INFO ControlerListenerManagerImpl:107 calling notifyStartup on org.matsim.counts.CountsControlerListener
2019-11-18 08:34:02,938  INFO ControlerListenerManagerImpl:107 calling notifyStartup on org.matsim.analysis.ModeStatsControlerListener
2019-11-18 08:34:02,938 DEBUG NetworkRoutingProvider:75 requesting network routing module with routingMode=car;	mode=car
2019-11-18 08:34:02,938 DEBUG NetworkRoutingProvider:75 requesting network routing module with routingMode=walk;	mode=walk
2019-11-18 08:34:02,938 DEBUG NetworkRoutingProvider:75 requesting network routing module with routingMode=bike;	mode=bike
2019-11-18 08:34:02,938  INFO ControlerListenerManagerImpl:107 calling notifyStartup on org.matsim.analysis.ScoreStatsControlerListener
2019-11-18 08:34:02,938  INFO ControlerListenerManagerImpl:110 all ControlerStartupListeners called.
2019-11-18 08:34:02,938  INFO ControlerUtils:58 config dump before iterations start
2019-11-18 08:34:02,954  INFO ControlerUtils:62 

<?xml version="1.0" encoding="UTF-8"?>
<!DOCTYPE config SYSTEM "http://www.matsim.org/files/dtd/config_v2.dtd">
<config>
	<module name="JDEQSim" >
		<param name="carSize" value="7.5" />
		<param name="endTime" value="undefined" />
		<param name="flowCapacityFactor" value="1.0" />
		<param name="gapTravelSpeed" value="15.0" />
		<param name="minimumInFlowCapacity" value="1800.0" />
		<param name="squeezeTime" value="1800.0" />
		<param name="storageCapacityFactor" value="1.0" />
	</module>
	<module name="TimeAllocationMutator" >
		<!-- Default:true; Defines whether time mutation changes an activity's duration. -->
		<param name="mutationAffectsDuration" value="true" />
		<!-- Default:1800.0; Defines how many seconds a time mutation can maximally shift a time. -->
		<param name="mutationRange" value="1800.0" />
		<!-- false; Use individual settings for each subpopulation. If enabled but no settings are found, regular settings are uses as fallback. -->
		<param name="useIndividualSettingsForSubpopulations" value="false" />
	</module>
	<module name="changeMode" >
		<!-- Defines whether car availability is considered be considered or not. An agent has no car only if it has no license, or never access to a car. Default: true -->
		<param name="ignoreCarAvailability" value="true" />
		<!-- Defines the mode switch behavior. Possible values [fromAllModesToSpecifiedModes, fromSpecifiedModesToSpecifiedModes] Default: fromSpecifiedModesToSpecifiedModes. -->
		<param name="modeSwitchBehavior" value="fromSpecifiedModesToSpecifiedModes" />
		<!-- Defines all the modes available, including chain-based modes, seperated by commas -->
		<param name="modes" value="car,pt" />
	</module>
	<module name="controler" >
		<!-- Sets whether graphs showing some analyses should automatically be generated during the simulation. The generation of graphs usually takes a small amount of time that does not have any weight in big simulations, but add a significant overhead in smaller runs or in test cases where the graphical output is not even requested. -->
		<param name="createGraphs" value="true" />
		<!-- true if at the end of a run, plans, network, config etc should be dumped to a file -->
		<param name="dumpDataAtEnd" value="true" />
		<!-- Default=false. If enabled, the router takes travel times needed for turning moves into account. Cannot be used if the (Fast)AStarLandmarks routing or TravelTimeCalculator.separateModes is enabled. -->
		<param name="enableLinkToLinkRouting" value="false" />
		<!-- Default=xml; Specifies the file format for writing events. Currently supported: xml.
		Multiple values can be specified separated by commas (','). -->
		<param name="eventsFileFormat" value="xml" />
		<!-- Default=0;  -->
		<param name="firstIteration" value="0" />
		<!-- Default=1000;  -->
		<param name="lastIteration" value="5" />
		<!-- Defines which mobility simulation will be used. Currently supported: qsim JDEQSim 
		Depending on the chosen mobsim, you'll have to add additional config modules to configure the corresponding mobsim.
		For 'qsim', add a module 'qsim' to the config. -->
		<param name="mobsim" value="qsim" />
		<param name="outputDirectory" value="D:\Benjamin Brownlee\matsim\run5\output\" />
		<!-- Possible values: failIfDirectoryExists, overwriteExistingFiles, deleteDirectoryIfExists -->
		<param name="overwriteFiles" value="failIfDirectoryExists" />
		<!-- The type of routing (least cost path) algorithm used, may have the values: Dijkstra, FastDijkstra, AStarLandmarks or FastAStarLandmarks -->
		<param name="routingAlgorithmType" value="AStarLandmarks" />
		<!-- An identifier for the current run which is used as prefix for output files and mentioned in output xml files etc. -->
		<param name="runId" value="null" />
		<!-- Comma-separated list of visualizer output file formats. `transims', `googleearth', and `otfvis'. -->
		<param name="snapshotFormat" value="" />
		<!-- iterationNumber % writeEventsInterval == 0 defines in which iterations events are written to a file. `0' disables events writing completely. -->
		<param name="writeEventsInterval" value="5" />
		<!-- iterationNumber % writePlansInterval == 0 defines (hopefully) in which iterations plans are written to a file. `0' disables plans writing completely.  Some plans in early iterations are always written -->
		<param name="writePlansInterval" value="1" />
		<!-- iterationNumber % writeSnapshotsInterval == 0 defines in which iterations snapshots are written to a file. `0' disables snapshots writing completely -->
		<param name="writeSnapshotsInterval" value="1" />
	</module>
	<module name="counts" >
		<!-- Transport modes that will be respected for the counts comparison. 'car' is default, which includes also bussed from the pt simulation module. Use this parameter in combination with 'filterModes' = true! -->
		<param name="analyzedModes" value="car" />
		<!-- Specifies over how many iterations the link volumes should be averaged that are used for the counts comparison. Use 1 or 0 to only use the link volumes of a single iteration. This values cannot be larger than the value specified for writeCountsInterval -->
		<param name="averageCountsOverIterations" value="5" />
		<!-- factor by which to re-scale the simulated values.  necessary when simulation runs with something different from 100%.  needs to be adapted manually -->
		<param name="countsScaleFactor" value="1.0" />
		<!-- distance to distanceFilterCenterNode to include counting stations. The unit of distance is the Euclidean distance implied by the coordinate system -->
		<param name="distanceFilter" value="null" />
		<!-- node id for center node of distance filter -->
		<param name="distanceFilterCenterNode" value="null" />
		<!-- If true, link counts from legs performed on modes not included in the 'analyzedModes' parameter are ignored. -->
		<param name="filterModes" value="false" />
		<!-- The Coordinates Reference System in which the coordinates are expressed in the input file. At import, the coordinates will be converted to the coordinate system defined in "global", and willbe converted back at export. If not specified, no conversion happens. -->
		<param name="inputCRS" value="null" />
		<!-- input file name to counts package -->
		<param name="inputCountsFile" value="null" />
		<!-- possible values: `html', `kml', `txt', `all' -->
		<param name="outputformat" value="txt" />
		<!-- Specifies how often the counts comparison should be calculated and written. -->
		<param name="writeCountsInterval" value="10" />
	</module>
	<module name="facilities" >
		<!-- This defines how facilities should be created. Possible values: none fromFile setInScenario onePerActivityLinkInPlansFile onePerActivityLocationInPlansFile  -->
		<param name="facilitiesSource" value="none" />
		<!-- A prefix to be used for auto-generated IDs. -->
		<param name="idPrefix" value="autogen_" />
		<!-- The Coordinates Reference System in which the coordinates are expressed in the input file. At import, the coordinates will be converted to the coordinate system defined in "global", and willbe converted back at export. If not specified, no conversion happens. -->
		<param name="inputCRS" value="null" />
		<param name="inputFacilitiesFile" value="null" />
		<param name="inputFacilityAttributesFile" value="null" />
	</module>
	<module name="global" >
		<param name="coordinateSystem" value="Atlantis" />
		<param name="insistingOnDeprecatedConfigVersion" value="true" />
		<!-- "global" number of threads.  This number is used, e.g., for replanning, but NOT in the mobsim.  This can typically be set to as many cores as you have available, or possibly even slightly more. -->
		<param name="numberOfThreads" value="20" />
		<param name="randomSeed" value="4711" />
	</module>
	<module name="households" >
		<param name="inputFile" value="null" />
		<param name="inputHouseholdAttributesFile" value="null" />
	</module>
	<module name="linkStats" >
		<!-- Specifies over how many iterations the link volumes should be averaged that are used for the link statistics. Use 1 or 0 to only use the link volumes of a single iteration. This values cannot be larger than the value specified for writeLinkStatsInterval -->
		<param name="averageLinkStatsOverIterations" value="5" />
		<!-- Specifies how often the link stats should be calculated and written. Use 0 to disable the generation of link stats. -->
		<param name="writeLinkStatsInterval" value="10" />
	</module>
	<module name="network" >
		<!-- The Coordinates Reference System in which the coordinates are expressed in the input file. At import, the coordinates will be converted to the coordinate system defined in "global", and willbe converted back at export. If not specified, no conversion happens. -->
		<param name="inputCRS" value="null" />
		<param name="inputChangeEventsFile" value="null" />
		<param name="inputNetworkFile" value="D:\Benjamin Brownlee\matsim\run5\input\network.xml" />
		<param name="laneDefinitionsFile" value="null" />
		<param name="timeVariantNetwork" value="false" />
	</module>
	<module name="parallelEventHandling" >
		<!-- Estimated number of events during mobsim run. An optional optimization hint for the framework. -->
		<param name="estimatedNumberOfEvents" value="null" />
		<!-- Number of threads for parallel events handler. _null_ means the framework decides by itself. 0 is currently not possible. -->
		<param name="numberOfThreads" value="null" />
		<!-- If enabled, each event handler is assigned to its own thread. Note that enabling this feature disabled the numberOfThreads option! This feature is still experimental! -->
		<param name="oneThreadPerHandler" value="false" />
		<!-- If enabled, it is ensured that all events that are created during a time step of the mobility simulation are processed before the next time step is simulated. E.g. neccessary when within-day replanning is used. -->
		<param name="synchronizeOnSimSteps" value="true" />
	</module>
	<module name="planCalcScore" >
		<!-- logit model scale parameter. default: 1.  Has name and default value for historical reasons (see Bryan Raney's phd thesis). -->
		<param name="BrainExpBeta" value="2.0" />
		<param name="PathSizeLogitBeta" value="1.0" />
		<!-- fraction of iterations at which MSA score averaging is started. The matsim theory department suggests to use this together with switching off choice set innovation (where a similar switch exists), but it has not been tested yet. -->
		<param name="fractionOfIterationsToStartScoreMSA" value="null" />
		<!-- new_score = (1-learningRate)*old_score + learningRate * score_from_mobsim.  learning rates close to zero emulate score averaging, but slow down initial convergence -->
		<param name="learningRate" value="1.0" />
		<!-- There used to be a plateau between duration=0 and duration=zeroUtilityDuration. This caused durations to evolve to zero once they were below zeroUtilityDuration, causing problems.  Only use this switch if you need to be backwards compatible with some old results.  (changed nov'13) -->
		<param name="usingOldScoringBelowZeroUtilityDuration" value="false" />
		<!-- write a plans file in each iteration directory which contains what each agent actually did, and the score it received. -->
		<param name="writeExperiencedPlans" value="false" />
		<parameterset type="scoringParameters" >
			<param name="earlyDeparture" value="-0.0" />
			<param name="lateArrival" value="-18.0" />
			<param name="marginalUtilityOfMoney" value="1.0" />
			<param name="performing" value="6.0" />
			<param name="subpopulation" value="null" />
			<param name="utilityOfLineSwitch" value="-1.0" />
			<param name="waiting" value="-0.0" />
			<param name="waitingPt" value="-6.0" />
			<parameterset type="activityParams" >
				<param name="activityType" value="default" />
				<param name="closingTime" value="undefined" />
				<param name="earliestEndTime" value="undefined" />
				<param name="latestStartTime" value="undefined" />
				<param name="minimalDuration" value="undefined" />
				<param name="openingTime" value="undefined" />
				<param name="priority" value="1.0" />
				<param name="scoringThisActivityAtAll" value="false" />
				<!-- typical duration of activity.  needs to be defined and non-zero.  in sec. -->
				<param name="typicalDuration" value="12:00:00" />
				<!-- method to compute score at typical duration.  Options: | uniform | relative | Use uniform for backwards compatibility (all activities same score; higher proba to drop long acts). -->
				<param name="typicalDurationScoreComputation" value="relative" />
			</parameterset>
			<parameterset type="activityParams" >
				<param name="activityType" value="other interaction" />
				<param name="closingTime" value="undefined" />
				<param name="earliestEndTime" value="undefined" />
				<param name="latestStartTime" value="undefined" />
				<param name="minimalDuration" value="undefined" />
				<param name="openingTime" value="undefined" />
				<param name="priority" value="1.0" />
				<param name="scoringThisActivityAtAll" value="false" />
				<param name="typicalDuration" value="12:00:00" />
				<param name="typicalDurationScoreComputation" value="relative" />
			</parameterset>
			<parameterset type="activityParams" >
				<param name="activityType" value="pt interaction" />
				<param name="closingTime" value="undefined" />
				<param name="earliestEndTime" value="undefined" />
				<param name="latestStartTime" value="undefined" />
				<param name="minimalDuration" value="undefined" />
				<param name="openingTime" value="undefined" />
				<param name="priority" value="1.0" />
				<param name="scoringThisActivityAtAll" value="false" />
				<param name="typicalDuration" value="12:00:00" />
				<param name="typicalDurationScoreComputation" value="relative" />
			</parameterset>
			<parameterset type="activityParams" >
				<param name="activityType" value="car interaction" />
				<param name="closingTime" value="undefined" />
				<param name="earliestEndTime" value="undefined" />
				<param name="latestStartTime" value="undefined" />
				<param name="minimalDuration" value="undefined" />
				<param name="openingTime" value="undefined" />
				<param name="priority" value="1.0" />
				<param name="scoringThisActivityAtAll" value="false" />
				<param name="typicalDuration" value="12:00:00" />
				<param name="typicalDurationScoreComputation" value="relative" />
			</parameterset>
			<parameterset type="activityParams" >
				<param name="activityType" value="bike interaction" />
				<param name="closingTime" value="undefined" />
				<param name="earliestEndTime" value="undefined" />
				<param name="latestStartTime" value="undefined" />
				<param name="minimalDuration" value="undefined" />
				<param name="openingTime" value="undefined" />
				<param name="priority" value="1.0" />
				<param name="scoringThisActivityAtAll" value="false" />
				<param name="typicalDuration" value="12:00:00" />
				<param name="typicalDurationScoreComputation" value="relative" />
			</parameterset>
			<parameterset type="activityParams" >
				<param name="activityType" value="walk interaction" />
				<param name="closingTime" value="undefined" />
				<param name="earliestEndTime" value="undefined" />
				<param name="latestStartTime" value="undefined" />
				<param name="minimalDuration" value="undefined" />
				<param name="openingTime" value="undefined" />
				<param name="priority" value="1.0" />
				<param name="scoringThisActivityAtAll" value="false" />
				<param name="typicalDuration" value="12:00:00" />
				<param name="typicalDurationScoreComputation" value="relative" />
			</parameterset>
			<parameterset type="activityParams" >
				<param name="activityType" value="home" />
				<param name="closingTime" value="undefined" />
				<param name="earliestEndTime" value="undefined" />
				<param name="latestStartTime" value="undefined" />
				<param name="minimalDuration" value="undefined" />
				<param name="openingTime" value="undefined" />
				<param name="priority" value="1.0" />
				<param name="scoringThisActivityAtAll" value="true" />
				<param name="typicalDuration" value="12:00:00" />
				<param name="typicalDurationScoreComputation" value="relative" />
			</parameterset>
			<parameterset type="activityParams" >
				<param name="activityType" value="workplace" />
				<param name="closingTime" value="undefined" />
				<param name="earliestEndTime" value="undefined" />
				<param name="latestStartTime" value="undefined" />
				<param name="minimalDuration" value="undefined" />
				<param name="openingTime" value="undefined" />
				<param name="priority" value="1.0" />
				<param name="scoringThisActivityAtAll" value="true" />
				<param name="typicalDuration" value="12:00:00" />
				<param name="typicalDurationScoreComputation" value="relative" />
			</parameterset>
			<parameterset type="activityParams" >
				<param name="activityType" value="university" />
				<param name="closingTime" value="undefined" />
				<param name="earliestEndTime" value="undefined" />
				<param name="latestStartTime" value="undefined" />
				<param name="minimalDuration" value="undefined" />
				<param name="openingTime" value="undefined" />
				<param name="priority" value="1.0" />
				<param name="scoringThisActivityAtAll" value="true" />
				<param name="typicalDuration" value="12:00:00" />
				<param name="typicalDurationScoreComputation" value="relative" />
			</parameterset>
			<parameterset type="activityParams" >
				<param name="activityType" value="school" />
				<param name="closingTime" value="undefined" />
				<param name="earliestEndTime" value="undefined" />
				<param name="latestStartTime" value="undefined" />
				<param name="minimalDuration" value="undefined" />
				<param name="openingTime" value="undefined" />
				<param name="priority" value="1.0" />
				<param name="scoringThisActivityAtAll" value="true" />
				<param name="typicalDuration" value="12:00:00" />
				<param name="typicalDurationScoreComputation" value="relative" />
			</parameterset>
			<parameterset type="activityParams" >
				<param name="activityType" value="shopping" />
				<param name="closingTime" value="undefined" />
				<param name="earliestEndTime" value="undefined" />
				<param name="latestStartTime" value="undefined" />
				<param name="minimalDuration" value="undefined" />
				<param name="openingTime" value="undefined" />
				<param name="priority" value="1.0" />
				<param name="scoringThisActivityAtAll" value="true" />
				<param name="typicalDuration" value="12:00:00" />
				<param name="typicalDurationScoreComputation" value="relative" />
			</parameterset>
			<parameterset type="activityParams" >
				<param name="activityType" value="escort" />
				<param name="closingTime" value="undefined" />
				<param name="earliestEndTime" value="undefined" />
				<param name="latestStartTime" value="undefined" />
				<param name="minimalDuration" value="undefined" />
				<param name="openingTime" value="undefined" />
				<param name="priority" value="1.0" />
				<param name="scoringThisActivityAtAll" value="true" />
				<param name="typicalDuration" value="12:00:00" />
				<param name="typicalDurationScoreComputation" value="relative" />
			</parameterset>
			<parameterset type="activityParams" >
				<param name="activityType" value="school_escort" />
				<param name="closingTime" value="undefined" />
				<param name="earliestEndTime" value="undefined" />
				<param name="latestStartTime" value="undefined" />
				<param name="minimalDuration" value="undefined" />
				<param name="openingTime" value="undefined" />
				<param name="priority" value="1.0" />
				<param name="scoringThisActivityAtAll" value="true" />
				<param name="typicalDuration" value="12:00:00" />
				<param name="typicalDurationScoreComputation" value="relative" />
			</parameterset>
			<parameterset type="activityParams" >
				<param name="activityType" value="pure_escort" />
				<param name="closingTime" value="undefined" />
				<param name="earliestEndTime" value="undefined" />
				<param name="latestStartTime" value="undefined" />
				<param name="minimalDuration" value="undefined" />
				<param name="openingTime" value="undefined" />
				<param name="priority" value="1.0" />
				<param name="scoringThisActivityAtAll" value="true" />
				<param name="typicalDuration" value="12:00:00" />
				<param name="typicalDurationScoreComputation" value="relative" />
			</parameterset>
			<parameterset type="activityParams" >
				<param name="activityType" value="rideshare" />
				<param name="closingTime" value="undefined" />
				<param name="earliestEndTime" value="undefined" />
				<param name="latestStartTime" value="undefined" />
				<param name="minimalDuration" value="undefined" />
				<param name="openingTime" value="undefined" />
				<param name="priority" value="1.0" />
				<param name="scoringThisActivityAtAll" value="true" />
				<param name="typicalDuration" value="12:00:00" />
				<param name="typicalDurationScoreComputation" value="relative" />
			</parameterset>
			<parameterset type="activityParams" >
				<param name="activityType" value="other_escort" />
				<param name="closingTime" value="undefined" />
				<param name="earliestEndTime" value="undefined" />
				<param name="latestStartTime" value="undefined" />
				<param name="minimalDuration" value="undefined" />
				<param name="openingTime" value="undefined" />
				<param name="priority" value="1.0" />
				<param name="scoringThisActivityAtAll" value="true" />
				<param name="typicalDuration" value="12:00:00" />
				<param name="typicalDurationScoreComputation" value="relative" />
			</parameterset>
			<parameterset type="activityParams" >
				<param name="activityType" value="other_maintenence" />
				<param name="closingTime" value="undefined" />
				<param name="earliestEndTime" value="undefined" />
				<param name="latestStartTime" value="undefined" />
				<param name="minimalDuration" value="undefined" />
				<param name="openingTime" value="undefined" />
				<param name="priority" value="1.0" />
				<param name="scoringThisActivityAtAll" value="true" />
				<param name="typicalDuration" value="12:00:00" />
				<param name="typicalDurationScoreComputation" value="relative" />
			</parameterset>
			<parameterset type="activityParams" >
				<param name="activityType" value="eating" />
				<param name="closingTime" value="undefined" />
				<param name="earliestEndTime" value="undefined" />
				<param name="latestStartTime" value="undefined" />
				<param name="minimalDuration" value="undefined" />
				<param name="openingTime" value="undefined" />
				<param name="priority" value="1.0" />
				<param name="scoringThisActivityAtAll" value="true" />
				<param name="typicalDuration" value="12:00:00" />
				<param name="typicalDurationScoreComputation" value="relative" />
			</parameterset>
			<parameterset type="activityParams" >
				<param name="activityType" value="breakfast" />
				<param name="closingTime" value="undefined" />
				<param name="earliestEndTime" value="undefined" />
				<param name="latestStartTime" value="undefined" />
				<param name="minimalDuration" value="undefined" />
				<param name="openingTime" value="undefined" />
				<param name="priority" value="1.0" />
				<param name="scoringThisActivityAtAll" value="true" />
				<param name="typicalDuration" value="12:00:00" />
				<param name="typicalDurationScoreComputation" value="relative" />
			</parameterset>
			<parameterset type="activityParams" >
				<param name="activityType" value="lunch" />
				<param name="closingTime" value="undefined" />
				<param name="earliestEndTime" value="undefined" />
				<param name="latestStartTime" value="undefined" />
				<param name="minimalDuration" value="undefined" />
				<param name="openingTime" value="undefined" />
				<param name="priority" value="1.0" />
				<param name="scoringThisActivityAtAll" value="true" />
				<param name="typicalDuration" value="12:00:00" />
				<param name="typicalDurationScoreComputation" value="relative" />
			</parameterset>
			<parameterset type="activityParams" >
				<param name="activityType" value="dinner" />
				<param name="closingTime" value="undefined" />
				<param name="earliestEndTime" value="undefined" />
				<param name="latestStartTime" value="undefined" />
				<param name="minimalDuration" value="undefined" />
				<param name="openingTime" value="undefined" />
				<param name="priority" value="1.0" />
				<param name="scoringThisActivityAtAll" value="true" />
				<param name="typicalDuration" value="12:00:00" />
				<param name="typicalDurationScoreComputation" value="relative" />
			</parameterset>
			<parameterset type="activityParams" >
				<param name="activityType" value="visiting" />
				<param name="closingTime" value="undefined" />
				<param name="earliestEndTime" value="undefined" />
				<param name="latestStartTime" value="undefined" />
				<param name="minimalDuration" value="undefined" />
				<param name="openingTime" value="undefined" />
				<param name="priority" value="1.0" />
				<param name="scoringThisActivityAtAll" value="true" />
				<param name="typicalDuration" value="12:00:00" />
				<param name="typicalDurationScoreComputation" value="relative" />
			</parameterset>
			<parameterset type="activityParams" >
				<param name="activityType" value="other_discretionary" />
				<param name="closingTime" value="undefined" />
				<param name="earliestEndTime" value="undefined" />
				<param name="latestStartTime" value="undefined" />
				<param name="minimalDuration" value="undefined" />
				<param name="openingTime" value="undefined" />
				<param name="priority" value="1.0" />
				<param name="scoringThisActivityAtAll" value="true" />
				<param name="typicalDuration" value="12:00:00" />
				<param name="typicalDurationScoreComputation" value="relative" />
			</parameterset>
			<parameterset type="activityParams" >
				<param name="activityType" value="special_event" />
				<param name="closingTime" value="undefined" />
				<param name="earliestEndTime" value="undefined" />
				<param name="latestStartTime" value="undefined" />
				<param name="minimalDuration" value="undefined" />
				<param name="openingTime" value="undefined" />
				<param name="priority" value="1.0" />
				<param name="scoringThisActivityAtAll" value="true" />
				<param name="typicalDuration" value="12:00:00" />
				<param name="typicalDurationScoreComputation" value="relative" />
			</parameterset>
			<parameterset type="activityParams" >
				<param name="activityType" value="work" />
				<param name="closingTime" value="undefined" />
				<param name="earliestEndTime" value="undefined" />
				<param name="latestStartTime" value="undefined" />
				<param name="minimalDuration" value="undefined" />
				<param name="openingTime" value="undefined" />
				<param name="priority" value="1.0" />
				<param name="scoringThisActivityAtAll" value="true" />
				<param name="typicalDuration" value="12:00:00" />
				<param name="typicalDurationScoreComputation" value="relative" />
			</parameterset>
			<parameterset type="activityParams" >
				<param name="activityType" value="work_business" />
				<param name="closingTime" value="undefined" />
				<param name="earliestEndTime" value="undefined" />
				<param name="latestStartTime" value="undefined" />
				<param name="minimalDuration" value="undefined" />
				<param name="openingTime" value="undefined" />
				<param name="priority" value="1.0" />
				<param name="scoringThisActivityAtAll" value="true" />
				<param name="typicalDuration" value="12:00:00" />
				<param name="typicalDurationScoreComputation" value="relative" />
			</parameterset>
			<parameterset type="activityParams" >
				<param name="activityType" value="work_lunch" />
				<param name="closingTime" value="undefined" />
				<param name="earliestEndTime" value="undefined" />
				<param name="latestStartTime" value="undefined" />
				<param name="minimalDuration" value="undefined" />
				<param name="openingTime" value="undefined" />
				<param name="priority" value="1.0" />
				<param name="scoringThisActivityAtAll" value="true" />
				<param name="typicalDuration" value="12:00:00" />
				<param name="typicalDurationScoreComputation" value="relative" />
			</parameterset>
			<parameterset type="activityParams" >
				<param name="activityType" value="work_other" />
				<param name="closingTime" value="undefined" />
				<param name="earliestEndTime" value="undefined" />
				<param name="latestStartTime" value="undefined" />
				<param name="minimalDuration" value="undefined" />
				<param name="openingTime" value="undefined" />
				<param name="priority" value="1.0" />
				<param name="scoringThisActivityAtAll" value="true" />
				<param name="typicalDuration" value="12:00:00" />
				<param name="typicalDurationScoreComputation" value="relative" />
			</parameterset>
			<parameterset type="activityParams" >
				<param name="activityType" value="work_related" />
				<param name="closingTime" value="undefined" />
				<param name="earliestEndTime" value="undefined" />
				<param name="latestStartTime" value="undefined" />
				<param name="minimalDuration" value="undefined" />
				<param name="openingTime" value="undefined" />
				<param name="priority" value="1.0" />
				<param name="scoringThisActivityAtAll" value="true" />
				<param name="typicalDuration" value="12:00:00" />
				<param name="typicalDurationScoreComputation" value="relative" />
			</parameterset>
			<parameterset type="activityParams" >
				<param name="activityType" value="asu_related" />
				<param name="closingTime" value="undefined" />
				<param name="earliestEndTime" value="undefined" />
				<param name="latestStartTime" value="undefined" />
				<param name="minimalDuration" value="undefined" />
				<param name="openingTime" value="undefined" />
				<param name="priority" value="1.0" />
				<param name="scoringThisActivityAtAll" value="true" />
				<param name="typicalDuration" value="12:00:00" />
				<param name="typicalDurationScoreComputation" value="relative" />
			</parameterset>
			<parameterset type="modeParams" >
				<!-- [utils] alternative-specific constant.  Normally per trip, but that is probably buggy for multi-leg trips. -->
				<param name="constant" value="0.0" />
				<!-- [money] daily monetary constant. default=0 to be backwards compatible -->
				<param name="dailyMonetaryConstant" value="0.0" />
				<!-- [utils] daily utility constant. default=0 to be backwards compatible -->
				<param name="dailyUtilityConstant" value="0.0" />
				<!-- [utils/m] utility of traveling (e.g. walking or driving) per m, normally negative.  this is on top of the time (dis)utility. -->
				<param name="marginalUtilityOfDistance_util_m" value="0.0" />
				<!-- [utils/hr] additional marginal utility of traveling.  normally negative.  this comes on top of the opportunity cost of time -->
				<param name="marginalUtilityOfTraveling_util_hr" value="-6.0" />
				<param name="mode" value="car" />
				<!-- [unit_of_money/m] conversion of distance into money. Normally negative. -->
				<param name="monetaryDistanceRate" value="0.0" />
			</parameterset>
			<parameterset type="modeParams" >
				<param name="constant" value="0.0" />
				<param name="dailyMonetaryConstant" value="0.0" />
				<param name="dailyUtilityConstant" value="0.0" />
				<param name="marginalUtilityOfDistance_util_m" value="0.0" />
				<param name="marginalUtilityOfTraveling_util_hr" value="-6.0" />
				<param name="mode" value="bike" />
				<param name="monetaryDistanceRate" value="0.0" />
			</parameterset>
			<parameterset type="modeParams" >
				<param name="constant" value="0.0" />
				<param name="dailyMonetaryConstant" value="0.0" />
				<param name="dailyUtilityConstant" value="0.0" />
				<param name="marginalUtilityOfDistance_util_m" value="0.0" />
				<param name="marginalUtilityOfTraveling_util_hr" value="-6.0" />
				<param name="mode" value="walk" />
				<param name="monetaryDistanceRate" value="0.0" />
			</parameterset>
		</parameterset>
	</module>
	<module name="plans" >
		<!-- String: minOfDurationAndEndTime tryEndTimeThenDuration endTimeOnly. Anything besides minOfDurationAndEndTime will internally use a different (simpler) version of the TimeAllocationMutator. -->
		<param name="activityDurationInterpretation" value="tryEndTimeThenDuration" />
		<!-- The Coordinates Reference System in which the coordinates are expressed in the input file. At import, the coordinates will be converted to the coordinate system defined in "global", and willbe converted back at export. If not specified, no conversion happens. -->
		<param name="inputCRS" value="null" />
		<param name="inputPersonAttributesFile" value="null" />
		<param name="inputPlansFile" value="D:\Benjamin Brownlee\matsim\run5\input\plans.xml" />
		<!-- Defines how routes are stored in memory. Currently supported: LinkNetworkRoute, CompressedNetworkRoute. -->
		<param name="networkRouteType" value="LinkNetworkRoute" />
		<!-- (not tested) will remove plan attributes that are presumably not used, such as activityStartTime. default=false. Use with Caution! -->
		<param name="removingUnnecessaryPlanAttributes" value="false" />
		<!-- Name of the (Object)Attribute defining the subpopulation to which pertains a Person (as freight, through traffic, etc.). The attribute must be of String type.  Change away from default only in desperate situations. -->
		<param name="subpopulationAttributeName" value="subpopulation" />
	</module>
	<module name="planscalcroute" >
		<!-- All the modes for which the router is supposed to generate network routes (like car) -->
		<param name="networkModes" value="car,bike,walk" />
		<parameterset type="teleportedModeParameters" >
			<param name="beelineDistanceFactor" value="1.3" />
			<param name="mode" value="pt" />
			<!-- Free-speed factor for a teleported mode. Travel time = teleportedModeFreespeedFactor * <freespeed car travel time>. Insert a line like this for every such mode. Please do not set teleportedModeFreespeedFactor as well as teleportedModeSpeed for the same mode, but if you do, +teleportedModeFreespeedFactor wins over teleportedModeSpeed. -->
			<param name="teleportedModeFreespeedFactor" value="null" />
			<!-- Speed for a teleported mode. Travel time = (<beeline distance> * beelineDistanceFactor) / teleportedModeSpeed. Insert a line like this for every such mode. -->
			<param name="teleportedModeSpeed" value="2.0" />
		</parameterset>
	</module>
	<module name="ptCounts" >
		<!-- factor by which to re-scale the simulated values.  necessary when simulation runs with something different from 100%.  needs to be adapted manually -->
		<param name="countsScaleFactor" value="1.0" />
		<!-- distance to distanceFilterCenterNode to include counting stations. The unit of distance is the Euclidean distance implied by the coordinate system -->
		<param name="distanceFilter" value="null" />
		<!-- node id for center node of distance filter -->
		<param name="distanceFilterCenterNode" value="null" />
		<!-- input file containing the alighting (getting off) counts for pt -->
		<param name="inputAlightCountsFile" value="null" />
		<!-- input file containing the boarding (getting on) counts for pt -->
		<param name="inputBoardCountsFile" value="null" />
		<!-- input file containing the occupancy counts for pt -->
		<param name="inputOccupancyCountsFile" value="null" />
		<!-- possible values: `html', `kml', `txt', `all' -->
		<param name="outputformat" value="null" />
		<!-- every how many iterations (starting with 0) counts comparisons are generated -->
		<param name="ptCountsInterval" value="10" />
	</module>
	<module name="qsim" >
		<param name="endTime" value="00:00:00" />
		<param name="flowCapacityFactor" value="1.0" />
		<!-- decides if waiting vehicles enter the network after or before the already driving vehicles were moved. Default: false -->
		<param name="insertingWaitingVehiclesBeforeDrivingVehicles" value="true" />
		<!-- If link dynamics is set as SeepageQ, set to false if all seep modes should perform seepage. Default is true (better option). -->
		<param name="isRestrictingSeepage" value="true" />
		<!-- If link dynamics is set as SeepageQ, set to true if seep mode do not consumes any space on the link. Default is false. -->
		<param name="isSeepModeStorageFree" value="false" />
		<!-- default: FIFO; options: FIFO PassingQ SeepageQ -->
		<param name="linkDynamics" value="PassingQ" />
		<!-- The (initial) width of the links of the network. Use positive floating point values. This is used only for visualisation. -->
		<param name="linkWidth" value="30.0" />
		<!-- [comma-separated list] Defines which modes are congested modes. Technically, these are the modes that the departure handler of the netsimengine handles.  Effective cell size, effective lane width, flow capacity factor, and storage capacity factor need to be set with diligence.  Need to be vehicular modes to make sense. -->
		<param name="mainMode" value="car" />
		<!-- Shortens a link in the visualization, i.e. its start and end point are moved into towards the center. Does not affect traffic flow.  -->
		<param name="nodeOffset" value="0.0" />
		<!-- Number of threads used for the QSim.  Note that this setting is independent from the "global" threads setting.  In contrast to earlier versions, the non-parallel special version is no longer there. -->
		<param name="numberOfThreads" value="20" />
		<!-- Boolean. `true': stuck vehicles are removed, aborting the plan; `false': stuck vehicles are forced into the next link. `false' is probably the better choice. -->
		<param name="removeStuckVehicles" value="false" />
		<!-- If link dynamics is set as SeepageQ, set a seep mode. Default is bike. -->
		<param name="seepMode" value="bike" />
		<!-- Possible values: minOfEndtimeAndMobsimFinished, onlyUseEndtime -->
		<param name="simEndtimeInterpretation" value="null" />
		<!-- Options: maxOfStarttimeAndEarliestActivityEnd onlyUseStarttime  -->
		<param name="simStarttimeInterpretation" value="maxOfStarttimeAndEarliestActivityEnd" />
		<!-- snapshotStyle. One of: equiDist queue withHoles withHolesAndShowHoles kinematicWaves  -->
		<param name="snapshotStyle" value="equiDist" />
		<param name="snapshotperiod" value="00:00:00" />
		<param name="startTime" value="00:00:00" />
		<param name="storageCapacityFactor" value="1.0" />
		<!-- time in seconds.  Time after which the frontmost vehicle on a link is called `stuck' if it does not move. -->
		<param name="stuckTime" value="10.0" />
		<param name="timeStepSize" value="00:00:01" />
		<!-- options: queue withHoles kinematicWaves  -->
		<param name="trafficDynamics" value="queue" />
		<!-- Set this parameter to true if lanes should be used, false if not. -->
		<param name="useLanes" value="true" />
		<!-- If a route does not reference a vehicle, agents will use the vehicle with the same id as their own. -->
		<param name="usePersonIdForMissingVehicleId" value="false" />
		<!-- If false, the qsim accumulates fractional flows up to one flow unit in every time step.  If true, flows are updated only if an agent wants to enter the link or an agent is added to buffer. Default is true. -->
		<param name="usingFastCapacityUpdate" value="true" />
		<!-- if the qsim should use as many runners as there are threads (Christoph's dissertation version) or more of them, together with a thread pool (seems to be faster in some situations, but is not tested). -->
		<param name="usingThreadpool" value="true" />
		<!-- Defines what happens if an agent wants to depart, but the specified vehicle is not available. One of: teleport wait exception  -->
		<param name="vehicleBehavior" value="teleport" />
		<!-- If vehicles should all be the same default vehicle, or come from the vehicles file, or something else.  Possible values:  defaultVehicle modeVehicleTypesFromVehiclesData fromVehiclesData -->
		<param name="vehiclesSource" value="fromVehiclesData" />
	</module>
	<module name="strategy" >
		<!-- the external executable will be called with a config file as argument.  This is the pathname to a possible skeleton config, to which additional information will be added.  Can be null. -->
		<param name="ExternalExeConfigTemplate" value="null" />
		<!-- time out value (in seconds) after which matsim will consider the external strategy as failed -->
		<param name="ExternalExeTimeOut" value="3600" />
		<!-- root directory for temporary files generated by the external executable. Provided as a service; I don't think this is used by MATSim. -->
		<param name="ExternalExeTmpFileRootDir" value="null" />
		<!-- fraction of iterations where innovative strategies are switched off.  Something like 0.8 should be good.  E.g. if you run from iteration 400 to iteration 500, innovation is switched off at iteration 480 -->
		<param name="fractionOfIterationsToDisableInnovation" value="Infinity" />
		<!-- maximum number of plans per agent.  ``0'' means ``infinity''.  Currently (2010), ``5'' is a good number -->
		<param name="maxAgentPlanMemorySize" value="5" />
		<!-- strategyName of PlanSelector for plans removal.  Possible defaults: WorstPlanSelector SelectRandom SelectExpBetaForRemoval ChangeExpBetaForRemoval PathSizeLogitSelectorForRemoval . The current default, WorstPlanSelector is not a good choice from a discrete choice theoretical perspective. Alternatives, however, have not been systematically tested. kai, feb'12 -->
		<param name="planSelectorForRemoval" value="WorstPlanSelector" />
		<parameterset type="strategysettings" >
			<!-- iteration after which strategy will be disabled.  most useful for ``innovative'' strategies (new routes, new times, ...). Normally, better use fractionOfIterationsToDisableInnovation -->
			<param name="disableAfterIteration" value="-1" />
			<!-- path to external executable (if applicable) -->
			<param name="executionPath" value="null" />
			<!-- strategyName of strategy.  Possible default names: SelectRandomBestScoreKeepLastSelectedChangeExpBetaSelectExpBetaSelectPathSizeLogit (selectors), ReRouteTimeAllocationMutatorTimeAllocationMutator_ReRouteChangeSingleTripModeChangeTripModeSubtourModeChoice (innovative strategies). -->
			<param name="strategyName" value="BestScore" />
			<!-- subpopulation to which the strategy applies. "null" refers to the default population, that is, the set of persons for which no explicit subpopulation is defined (ie no subpopulation attribute) -->
			<param name="subpopulation" value="null" />
			<!-- weight of a strategy: for each agent, a strategy will be selected with a probability proportional to its weight -->
			<param name="weight" value="0.9" />
		</parameterset>
		<parameterset type="strategysettings" >
			<param name="disableAfterIteration" value="-1" />
			<param name="executionPath" value="null" />
			<param name="strategyName" value="ReRoute" />
			<param name="subpopulation" value="null" />
			<param name="weight" value="0.1" />
		</parameterset>
	</module>
	<module name="subtourModeChoice" >
		<!-- Only for backwards compatibility.  Defines if only trips from modes list should change mode, or all trips.  Options: fromAllModesToSpecifiedModes fromSpecifiedModesToSpecifiedModes  -->
		<param name="behavior" value="fromSpecifiedModesToSpecifiedModes" />
		<!-- Defines the chain-based modes, seperated by commas -->
		<param name="chainBasedModes" value="car,bike" />
		<!-- Defines whether car availability must be considered or not. A agent has no car only if it has no license, or never access to a car -->
		<param name="considerCarAvailability" value="false" />
		<!-- Defines all the modes available, including chain-based modes, seperated by commas -->
		<param name="modes" value="car,pt,bike,walk" />
	</module>
	<module name="transit" >
		<!-- The Coordinates Reference System in which the coordinates are expressed in the input file. At import, the coordinates will be converted to the coordinate system defined in "global", and willbe converted back at export. If not specified, no conversion happens. -->
		<param name="inputScheduleCRS" value="null" />
		<!-- Optional input file containing additional attributes for transit lines, stored as ObjectAttributes. -->
		<param name="transitLinesAttributesFile" value="null" />
		<!-- Comma-separated list of transportation modes that are handled as transit. Defaults to 'pt'. -->
		<param name="transitModes" value="pt" />
		<!-- Input file containing the transit schedule to be simulated. -->
		<param name="transitScheduleFile" value="null" />
		<!-- Optional input file containing additional attributes for transit stop facilities, stored as ObjectAttributes. -->
		<param name="transitStopsAttributesFile" value="null" />
		<!-- Set this parameter to true if transit should be simulated, false if not. -->
		<param name="useTransit" value="false" />
		<!-- Input file containing the vehicles used by the departures in the transit schedule. -->
		<param name="vehiclesFile" value="null" />
	</module>
	<module name="transitRouter" >
		<!-- additional time the router allocates when a line switch happens. Can be interpreted as a 'safety' time that agents need to safely transfer from one line to another -->
		<param name="additionalTransferTime" value="0.0" />
		<!-- Factor with which direct walk generalized cost is multiplied before it is compared to the pt generalized cost.  Set to a very high value to reduce direct walk results. -->
		<param name="directWalkFactor" value="1.0" />
		<!-- step size to increase searchRadius if no stops are found -->
		<param name="extensionRadius" value="200.0" />
		<!-- maximum beeline distance between stops that agents could transfer to by walking -->
		<param name="maxBeelineWalkConnectionDistance" value="100.0" />
		<!-- the radius in which stop locations are searched, given a start or target coordinate -->
		<param name="searchRadius" value="1000.0" />
	</module>
	<module name="travelTimeCalculator" >
		<!-- (only for backwards compatibility; only used if separateModes==false && + filterModes==true)  Transport modes that will be respected by the travel time collector. 'car' is default which includes also buses from the pt simulation module. -->
		<param name="analyzedModes" value="car" />
		<param name="calculateLinkToLinkTravelTimes" value="false" />
		<param name="calculateLinkTravelTimes" value="true" />
		<!-- (only for backwards compatiblity; only used if separateModes==false)  Only modes included in analyzedModes are included. -->
		<param name="filterModes" value="false" />
		<!-- The lenght (in sec) of the time period that is splited into time bins; an additional time bin is created to aggregate all travel times collected after maxTime -->
		<param name="maxTime" value="108000" />
		<!-- (only for backwards compatibility) If false, link travel times are measured and aggregated over all vehicles using the link. -->
		<param name="separateModes" value="true" />
		<!-- How to deal with congested time bins that have no link entry events. `optimistic' assumes free speed (too optimistic); 'experimental_LastMile' is experimental and probably too pessimistic. -->
		<param name="travelTimeAggregator" value="optimistic" />
		<!-- The size of the time bin (in sec) into which the link travel times are aggregated for the router -->
		<param name="travelTimeBinSize" value="900" />
		<!-- possible values: TravelTimeCalculatorArray TravelTimeCalculatorHashMap  -->
		<param name="travelTimeCalculator" value="TravelTimeCalculatorArray" />
		<!-- How to deal with link entry times at different positions during the time bin. Currently supported: average, linearinterpolation -->
		<param name="travelTimeGetter" value="average" />
	</module>
	<module name="vehicles" >
		<param name="vehiclesFile" value="D:\Benjamin Brownlee\matsim\run5\input\vehicles.xml" />
	</module>
	<module name="vspExperimental" >
		<!-- (do not use except of you have to) There was a problem with pt interaction scoring.  Some people solved it by overwriting the parameters of the pt interaction activity type.  Doing this now throws an Exception.  If you still insist on doing this, set the following to true. -->
		<param name="isAbleToOverwritePtInteractionParams" value="false" />
		<param name="isGeneratingBoardingDeniedEvent" value="false" />
		<!-- if an approximation of the opportunity cost of time is included into the radius calculation for location choice.`true' will be faster, but it is an approximation.  Default is `true'; `false' is available for backwards compatibility. -->
		<param name="isUsingOpportunityCostOfTimeForLocationChoice" value="true" />
		<param name="logitScaleParamForPlansRemoval" value="1.0" />
		<!-- Options: | ignore | info | warn | abort | .  When violating VSP defaults, this results in nothing, logfile infos, logfile warnings, or aborts.  Members of VSP should use `abort' or talk to kai. -->
		<param name="vspDefaultsCheckingLevel" value="ignore" />
		<!-- if true then writes output_events in output directory.  default is `false'. Will only work when lastIteration is multiple of events writing interval -->
		<param name="writingOutputEvents" value="true" />
	</module>

</config>

2019-11-18 08:34:02,969  INFO ControlerUtils:63 Complete config dump done.
2019-11-18 08:34:02,969  INFO ControlerUtils:64 Checking consistency of config...
2019-11-18 08:34:02,969  INFO PlanCalcScoreConfigGroup$ScoringParameterSet:1492 NO OPENING OR CLOSING TIMES DEFINED!

There is no activity type that has an opening *and* closing time (or opening time and late penalty) defined.
This usually means that the activity chains can be shifted by an arbitrary
number of hours without having an effect on the score of the plans, and thus
resulting in wrong results / traffic patterns.
If you are using MATSim without time adaptation, you can ignore this warning.


2019-11-18 08:34:02,969  INFO VspConfigConsistencyCheckerImpl:58 NOT running vsp config consistency check because vsp defaults checking level is set to IGNORE
2019-11-18 08:34:02,969  WARN ConfigConsistencyCheckerImpl:165 Using lanes without enabling linktolinkrouting might not lead to expected simulation results
2019-11-18 08:34:02,969  WARN ConfigConsistencyCheckerImpl:61 AnalyzedModes in travelTimeCalculator config is not superset of network routing modes.  Will fail later except when defined by other means.
2019-11-18 08:34:02,985  INFO ControlerUtils:66 Checking consistency of config done.
2019-11-18 08:34:02,985  INFO PrepareForSimImpl:79 Network seems to be multimodal. Create car-only network which is handed over to PersonPrepareForSim.
2019-11-18 08:34:02,985  INFO NetworkImpl:167  node # 1
2019-11-18 08:34:02,985  INFO NetworkImpl:167  node # 4
2019-11-18 08:34:02,985  INFO NetworkImpl:167  node # 16
2019-11-18 08:34:02,985  INFO NetworkImpl:167  node # 64
2019-11-18 08:34:02,985  INFO NetworkImpl:167  node # 256
2019-11-18 08:34:02,985  INFO NetworkImpl:167  node # 1024
2019-11-18 08:34:02,985  INFO NetworkImpl:167  node # 4096
2019-11-18 08:34:02,985  INFO NetworkImpl:167  node # 16384
2019-11-18 08:34:03,000  INFO NetworkImpl:167  node # 65536
2019-11-18 08:34:03,063  INFO NetworkImpl:167  node # 262144
2019-11-18 08:34:03,078  INFO NetworkImpl:163  link # 1
2019-11-18 08:34:03,078  INFO NetworkImpl:163  link # 4
2019-11-18 08:34:03,078  INFO NetworkImpl:163  link # 16
2019-11-18 08:34:03,078  INFO NetworkImpl:163  link # 64
2019-11-18 08:34:03,094  INFO NetworkImpl:163  link # 256
2019-11-18 08:34:03,094  INFO NetworkImpl:163  link # 1024
2019-11-18 08:34:03,094  INFO NetworkImpl:163  link # 4096
2019-11-18 08:34:03,125  INFO NetworkImpl:163  link # 16384
2019-11-18 08:34:03,219  INFO NetworkImpl:163  link # 65536
2019-11-18 08:34:03,610  INFO NetworkImpl:163  link # 262144
2019-11-18 08:34:04,750 DEBUG NetworkRoutingProvider:75 requesting network routing module with routingMode=car;	mode=car
2019-11-18 08:34:04,750 DEBUG NetworkRoutingProvider:75 requesting network routing module with routingMode=walk;	mode=walk
2019-11-18 08:34:04,750 DEBUG NetworkRoutingProvider:75 requesting network routing module with routingMode=bike;	mode=bike
2019-11-18 08:34:04,953 DEBUG NetworkRoutingProvider:75 requesting network routing module with routingMode=car;	mode=car
2019-11-18 08:34:04,953 DEBUG NetworkRoutingProvider:75 requesting network routing module with routingMode=walk;	mode=walk
2019-11-18 08:34:04,953 DEBUG NetworkRoutingProvider:75 requesting network routing module with routingMode=bike;	mode=bike
2019-11-18 08:34:05,110 DEBUG NetworkRoutingProvider:75 requesting network routing module with routingMode=car;	mode=car
2019-11-18 08:34:05,110 DEBUG NetworkRoutingProvider:75 requesting network routing module with routingMode=walk;	mode=walk
2019-11-18 08:34:05,125 DEBUG NetworkRoutingProvider:75 requesting network routing module with routingMode=bike;	mode=bike
2019-11-18 08:34:05,281 DEBUG NetworkRoutingProvider:75 requesting network routing module with routingMode=car;	mode=car
2019-11-18 08:34:05,281 DEBUG NetworkRoutingProvider:75 requesting network routing module with routingMode=walk;	mode=walk
2019-11-18 08:34:05,281 DEBUG NetworkRoutingProvider:75 requesting network routing module with routingMode=bike;	mode=bike
2019-11-18 08:34:05,438 DEBUG NetworkRoutingProvider:75 requesting network routing module with routingMode=car;	mode=car
2019-11-18 08:34:05,438 DEBUG NetworkRoutingProvider:75 requesting network routing module with routingMode=walk;	mode=walk
2019-11-18 08:34:05,438 DEBUG NetworkRoutingProvider:75 requesting network routing module with routingMode=bike;	mode=bike
2019-11-18 08:34:05,578 DEBUG NetworkRoutingProvider:75 requesting network routing module with routingMode=car;	mode=car
2019-11-18 08:34:05,578 DEBUG NetworkRoutingProvider:75 requesting network routing module with routingMode=walk;	mode=walk
2019-11-18 08:34:05,594 DEBUG NetworkRoutingProvider:75 requesting network routing module with routingMode=bike;	mode=bike
2019-11-18 08:34:05,735 DEBUG NetworkRoutingProvider:75 requesting network routing module with routingMode=car;	mode=car
2019-11-18 08:34:05,735 DEBUG NetworkRoutingProvider:75 requesting network routing module with routingMode=walk;	mode=walk
2019-11-18 08:34:05,750 DEBUG NetworkRoutingProvider:75 requesting network routing module with routingMode=bike;	mode=bike
2019-11-18 08:34:05,891 DEBUG NetworkRoutingProvider:75 requesting network routing module with routingMode=car;	mode=car
2019-11-18 08:34:05,891 DEBUG NetworkRoutingProvider:75 requesting network routing module with routingMode=walk;	mode=walk
2019-11-18 08:34:05,891 DEBUG NetworkRoutingProvider:75 requesting network routing module with routingMode=bike;	mode=bike
2019-11-18 08:34:06,047 DEBUG NetworkRoutingProvider:75 requesting network routing module with routingMode=car;	mode=car
2019-11-18 08:34:06,047 DEBUG NetworkRoutingProvider:75 requesting network routing module with routingMode=walk;	mode=walk
2019-11-18 08:34:06,047 DEBUG NetworkRoutingProvider:75 requesting network routing module with routingMode=bike;	mode=bike
2019-11-18 08:34:06,203 DEBUG NetworkRoutingProvider:75 requesting network routing module with routingMode=car;	mode=car
2019-11-18 08:34:06,203 DEBUG NetworkRoutingProvider:75 requesting network routing module with routingMode=walk;	mode=walk
2019-11-18 08:34:06,203 DEBUG NetworkRoutingProvider:75 requesting network routing module with routingMode=bike;	mode=bike
2019-11-18 08:34:06,360 DEBUG NetworkRoutingProvider:75 requesting network routing module with routingMode=car;	mode=car
2019-11-18 08:34:06,360 DEBUG NetworkRoutingProvider:75 requesting network routing module with routingMode=walk;	mode=walk
2019-11-18 08:34:06,360 DEBUG NetworkRoutingProvider:75 requesting network routing module with routingMode=bike;	mode=bike
2019-11-18 08:34:06,501 DEBUG NetworkRoutingProvider:75 requesting network routing module with routingMode=car;	mode=car
2019-11-18 08:34:06,501 DEBUG NetworkRoutingProvider:75 requesting network routing module with routingMode=walk;	mode=walk
2019-11-18 08:34:06,516 DEBUG NetworkRoutingProvider:75 requesting network routing module with routingMode=bike;	mode=bike
2019-11-18 08:34:06,657 DEBUG NetworkRoutingProvider:75 requesting network routing module with routingMode=car;	mode=car
2019-11-18 08:34:06,657 DEBUG NetworkRoutingProvider:75 requesting network routing module with routingMode=walk;	mode=walk
2019-11-18 08:34:06,657 DEBUG NetworkRoutingProvider:75 requesting network routing module with routingMode=bike;	mode=bike
2019-11-18 08:34:06,813 DEBUG NetworkRoutingProvider:75 requesting network routing module with routingMode=car;	mode=car
2019-11-18 08:34:06,813 DEBUG NetworkRoutingProvider:75 requesting network routing module with routingMode=walk;	mode=walk
2019-11-18 08:34:06,813 DEBUG NetworkRoutingProvider:75 requesting network routing module with routingMode=bike;	mode=bike
2019-11-18 08:34:06,969 DEBUG NetworkRoutingProvider:75 requesting network routing module with routingMode=car;	mode=car
2019-11-18 08:34:06,969 DEBUG NetworkRoutingProvider:75 requesting network routing module with routingMode=walk;	mode=walk
2019-11-18 08:34:06,969 DEBUG NetworkRoutingProvider:75 requesting network routing module with routingMode=bike;	mode=bike
2019-11-18 08:34:07,110 DEBUG NetworkRoutingProvider:75 requesting network routing module with routingMode=car;	mode=car
2019-11-18 08:34:07,110 DEBUG NetworkRoutingProvider:75 requesting network routing module with routingMode=walk;	mode=walk
2019-11-18 08:34:07,110 DEBUG NetworkRoutingProvider:75 requesting network routing module with routingMode=bike;	mode=bike
2019-11-18 08:34:07,266 DEBUG NetworkRoutingProvider:75 requesting network routing module with routingMode=car;	mode=car
2019-11-18 08:34:07,266 DEBUG NetworkRoutingProvider:75 requesting network routing module with routingMode=walk;	mode=walk
2019-11-18 08:34:07,266 DEBUG NetworkRoutingProvider:75 requesting network routing module with routingMode=bike;	mode=bike
2019-11-18 08:34:07,422 DEBUG NetworkRoutingProvider:75 requesting network routing module with routingMode=car;	mode=car
2019-11-18 08:34:07,422 DEBUG NetworkRoutingProvider:75 requesting network routing module with routingMode=walk;	mode=walk
2019-11-18 08:34:07,422 DEBUG NetworkRoutingProvider:75 requesting network routing module with routingMode=bike;	mode=bike
2019-11-18 08:34:07,578 DEBUG NetworkRoutingProvider:75 requesting network routing module with routingMode=car;	mode=car
2019-11-18 08:34:07,578 DEBUG NetworkRoutingProvider:75 requesting network routing module with routingMode=walk;	mode=walk
2019-11-18 08:34:07,578 DEBUG NetworkRoutingProvider:75 requesting network routing module with routingMode=bike;	mode=bike
2019-11-18 08:34:07,735 DEBUG NetworkRoutingProvider:75 requesting network routing module with routingMode=car;	mode=car
2019-11-18 08:34:07,735 DEBUG NetworkRoutingProvider:75 requesting network routing module with routingMode=walk;	mode=walk
2019-11-18 08:34:07,735 DEBUG NetworkRoutingProvider:75 requesting network routing module with routingMode=bike;	mode=bike
2019-11-18 08:34:07,891  INFO Counter:70 [PersonPrepareForSim] handled person # 1
2019-11-18 08:34:07,907  INFO Counter:70 [PersonPrepareForSim] handled person # 128
2019-11-18 08:34:07,891  INFO Counter:70 [PersonPrepareForSim] handled person # 64
2019-11-18 08:34:07,891  INFO Counter:70 [PersonPrepareForSim] handled person # 32
2019-11-18 08:34:07,891  INFO Counter:70 [PersonPrepareForSim] handled person # 16
2019-11-18 08:34:07,891  INFO Counter:70 [PersonPrepareForSim] handled person # 4
2019-11-18 08:34:07,891  INFO Counter:70 [PersonPrepareForSim] handled person # 8
2019-11-18 08:34:07,891  INFO Counter:70 [PersonPrepareForSim] handled person # 2
2019-11-18 08:34:07,907  INFO Counter:76 [PersonPrepareForSim] handled person # 240
2019-11-18 08:34:08,016  INFO AbstractController:123 ###################################################
2019-11-18 08:34:08,016  INFO AbstractController:124 ### ITERATION 0 BEGINS
2019-11-18 08:34:08,016  INFO ControlerListenerManagerImpl:145 calling notifyIterationStarts on org.matsim.analysis.LegHistogramListener
2019-11-18 08:34:08,016  INFO ControlerListenerManagerImpl:145 calling notifyIterationStarts on org.matsim.analysis.LinkStatsControlerListener
2019-11-18 08:34:08,016  INFO ControlerListenerManagerImpl:145 calling notifyIterationStarts on org.matsim.core.replanning.ReplanningContextImpl
2019-11-18 08:34:08,016  INFO ControlerListenerManagerImpl:145 calling notifyIterationStarts on org.matsim.core.scoring.ExperiencedPlansServiceImpl$1
2019-11-18 08:34:08,032  INFO ControlerListenerManagerImpl:145 calling notifyIterationStarts on org.matsim.core.scoring.ScoringFunctionsForPopulation$1
2019-11-18 08:34:08,094  INFO ControlerListenerManagerImpl:148 [it.0] all ControlerIterationStartsListeners called.
2019-11-18 08:34:08,094  INFO ControlerListenerManagerImpl:224 calling notifyBeforeMobsim on org.matsim.core.controler.corelisteners.EventsHandlingImpl
2019-11-18 08:34:08,094  INFO EventsManagerImpl:170 resetting Event-Handlers
2019-11-18 08:34:08,094  INFO EventsManagerImpl:177   org.matsim.core.trafficmonitoring.TravelTimeCalculator
2019-11-18 08:34:08,094  INFO EventsManagerImpl:177   org.matsim.core.trafficmonitoring.TravelTimeCalculator
2019-11-18 08:34:08,094  INFO EventsManagerImpl:177   org.matsim.core.trafficmonitoring.TravelTimeCalculator
2019-11-18 08:34:08,094  INFO EventsManagerImpl:177   org.matsim.core.scoring.EventsToLegsAndActivities
2019-11-18 08:34:08,094  INFO EventsManagerImpl:177   org.matsim.analysis.VolumesAnalyzer
2019-11-18 08:34:08,094  INFO EventsManagerImpl:177   org.matsim.core.events.algorithms.Vehicle2DriverEventHandler
2019-11-18 08:34:08,094  INFO EventsManagerImpl:177   org.matsim.core.scoring.ScoringFunctionsForPopulation
2019-11-18 08:34:08,094  INFO EventsManagerImpl:177   org.matsim.analysis.LegHistogram
2019-11-18 08:34:08,094  INFO EventsManagerImpl:177   org.matsim.analysis.CalcLegTimes
2019-11-18 08:34:08,110  INFO EventsManagerImpl:144 adding Event-Handler: org.matsim.core.events.algorithms.EventWriterXML
2019-11-18 08:34:08,110  INFO EventsManagerImpl:148   org.matsim.core.events.algorithms.EventWriter
2019-11-18 08:34:08,110  INFO EventsManagerImpl:148   org.matsim.core.events.handler.BasicEventHandler
2019-11-18 08:34:08,110  INFO EventsManagerImpl:207     > org.matsim.api.core.v01.events.Event
2019-11-18 08:34:08,110  INFO EventsManagerImpl:156 
2019-11-18 08:34:08,110  INFO EventsManagerImpl:144 adding Event-Handler: org.matsim.core.events.algorithms.EventWriterXML
2019-11-18 08:34:08,110  INFO EventsManagerImpl:148   org.matsim.core.events.algorithms.EventWriter
2019-11-18 08:34:08,110  INFO EventsManagerImpl:148   org.matsim.core.events.handler.BasicEventHandler
2019-11-18 08:34:08,110  INFO EventsManagerImpl:207     > org.matsim.api.core.v01.events.Event
2019-11-18 08:34:08,110  INFO EventsManagerImpl:156 
2019-11-18 08:34:08,110  INFO ControlerListenerManagerImpl:224 calling notifyBeforeMobsim on org.matsim.core.controler.corelisteners.PlansDumpingImpl
2019-11-18 08:34:08,110  INFO PlansDumpingImpl:76 dumping plans...
2019-11-18 08:34:08,110  INFO Counter:70 [PopulationWriter] dumped person # 1
2019-11-18 08:34:08,126  INFO Counter:70 [PopulationWriter] dumped person # 2
2019-11-18 08:34:08,126  INFO Counter:70 [PopulationWriter] dumped person # 4
2019-11-18 08:34:08,141  INFO Counter:70 [PopulationWriter] dumped person # 8
2019-11-18 08:34:08,157  INFO Counter:70 [PopulationWriter] dumped person # 16
2019-11-18 08:34:08,173  INFO Counter:70 [PopulationWriter] dumped person # 32
2019-11-18 08:34:08,204  INFO Counter:70 [PopulationWriter] dumped person # 64
2019-11-18 08:34:08,266  INFO Counter:70 [PopulationWriter] dumped person # 128
2019-11-18 08:34:08,375  INFO PopulationWriter:139 Population written to: D:\Benjamin Brownlee\matsim\run5\output\/ITERS/it.0/0.plans.xml.gz
2019-11-18 08:34:08,375  INFO Counter:76 [PopulationWriter] dumped person # 240
2019-11-18 08:34:08,375  INFO PlansDumpingImpl:93 finished plans dump.
2019-11-18 08:34:08,375  INFO ControlerListenerManagerImpl:229 calling notifyBeforeMobsim on org.matsim.core.population.VspPlansCleaner
2019-11-18 08:34:08,375  INFO ControlerListenerManagerImpl:232 [it.0] all ControlerBeforeMobsimListeners called.
2019-11-18 08:34:08,375  INFO PrepareForMobsimImpl:79 Network seems to be multimodal. Create car-only network which is handed over to PersonPrepareForSim.
2019-11-18 08:34:08,375  INFO NetworkImpl:167  node # 1
2019-11-18 08:34:08,375  INFO NetworkImpl:167  node # 4
2019-11-18 08:34:08,375  INFO NetworkImpl:167  node # 16
2019-11-18 08:34:08,391  INFO NetworkImpl:167  node # 64
2019-11-18 08:34:08,391  INFO NetworkImpl:167  node # 256
2019-11-18 08:34:08,391  INFO NetworkImpl:167  node # 1024
2019-11-18 08:34:08,391  INFO NetworkImpl:167  node # 4096
2019-11-18 08:34:08,391  INFO NetworkImpl:167  node # 16384
2019-11-18 08:34:08,407  INFO NetworkImpl:167  node # 65536
2019-11-18 08:34:08,469  INFO NetworkImpl:167  node # 262144
2019-11-18 08:34:08,485  INFO NetworkImpl:163  link # 1
2019-11-18 08:34:08,485  INFO NetworkImpl:163  link # 4
2019-11-18 08:34:08,485  INFO NetworkImpl:163  link # 16
2019-11-18 08:34:08,485  INFO NetworkImpl:163  link # 64
2019-11-18 08:34:08,485  INFO NetworkImpl:163  link # 256
2019-11-18 08:34:08,485  INFO NetworkImpl:163  link # 1024
2019-11-18 08:34:08,485  INFO NetworkImpl:163  link # 4096
2019-11-18 08:34:09,078  INFO NetworkImpl:163  link # 16384
2019-11-18 08:34:09,172  INFO NetworkImpl:163  link # 65536
2019-11-18 08:34:09,563  INFO NetworkImpl:163  link # 262144
2019-11-18 08:34:10,532 DEBUG NetworkRoutingProvider:75 requesting network routing module with routingMode=car;	mode=car
2019-11-18 08:34:10,532 DEBUG NetworkRoutingProvider:75 requesting network routing module with routingMode=walk;	mode=walk
2019-11-18 08:34:10,532 DEBUG NetworkRoutingProvider:75 requesting network routing module with routingMode=bike;	mode=bike
2019-11-18 08:34:10,657 DEBUG NetworkRoutingProvider:75 requesting network routing module with routingMode=car;	mode=car
2019-11-18 08:34:10,657 DEBUG NetworkRoutingProvider:75 requesting network routing module with routingMode=walk;	mode=walk
2019-11-18 08:34:10,657 DEBUG NetworkRoutingProvider:75 requesting network routing module with routingMode=bike;	mode=bike
2019-11-18 08:34:10,797 DEBUG NetworkRoutingProvider:75 requesting network routing module with routingMode=car;	mode=car
2019-11-18 08:34:10,797 DEBUG NetworkRoutingProvider:75 requesting network routing module with routingMode=walk;	mode=walk
2019-11-18 08:34:10,797 DEBUG NetworkRoutingProvider:75 requesting network routing module with routingMode=bike;	mode=bike
2019-11-18 08:34:10,938 DEBUG NetworkRoutingProvider:75 requesting network routing module with routingMode=car;	mode=car
2019-11-18 08:34:10,938 DEBUG NetworkRoutingProvider:75 requesting network routing module with routingMode=walk;	mode=walk
2019-11-18 08:34:10,938 DEBUG NetworkRoutingProvider:75 requesting network routing module with routingMode=bike;	mode=bike
2019-11-18 08:34:11,079 DEBUG NetworkRoutingProvider:75 requesting network routing module with routingMode=car;	mode=car
2019-11-18 08:34:11,079 DEBUG NetworkRoutingProvider:75 requesting network routing module with routingMode=walk;	mode=walk
2019-11-18 08:34:11,079 DEBUG NetworkRoutingProvider:75 requesting network routing module with routingMode=bike;	mode=bike
2019-11-18 08:34:11,219 DEBUG NetworkRoutingProvider:75 requesting network routing module with routingMode=car;	mode=car
2019-11-18 08:34:11,219 DEBUG NetworkRoutingProvider:75 requesting network routing module with routingMode=walk;	mode=walk
2019-11-18 08:34:11,219 DEBUG NetworkRoutingProvider:75 requesting network routing module with routingMode=bike;	mode=bike
2019-11-18 08:34:11,610 DEBUG NetworkRoutingProvider:75 requesting network routing module with routingMode=car;	mode=car
2019-11-18 08:34:11,610 DEBUG NetworkRoutingProvider:75 requesting network routing module with routingMode=walk;	mode=walk
2019-11-18 08:34:11,610 DEBUG NetworkRoutingProvider:75 requesting network routing module with routingMode=bike;	mode=bike
2019-11-18 08:34:11,704 DEBUG NetworkRoutingProvider:75 requesting network routing module with routingMode=car;	mode=car
2019-11-18 08:34:11,704 DEBUG NetworkRoutingProvider:75 requesting network routing module with routingMode=walk;	mode=walk
2019-11-18 08:34:11,719 DEBUG NetworkRoutingProvider:75 requesting network routing module with routingMode=bike;	mode=bike
2019-11-18 08:34:11,813 DEBUG NetworkRoutingProvider:75 requesting network routing module with routingMode=car;	mode=car
2019-11-18 08:34:11,813 DEBUG NetworkRoutingProvider:75 requesting network routing module with routingMode=walk;	mode=walk
2019-11-18 08:34:11,813 DEBUG NetworkRoutingProvider:75 requesting network routing module with routingMode=bike;	mode=bike
2019-11-18 08:34:11,907 DEBUG NetworkRoutingProvider:75 requesting network routing module with routingMode=car;	mode=car
2019-11-18 08:34:11,907 DEBUG NetworkRoutingProvider:75 requesting network routing module with routingMode=walk;	mode=walk
2019-11-18 08:34:11,907 DEBUG NetworkRoutingProvider:75 requesting network routing module with routingMode=bike;	mode=bike
2019-11-18 08:34:12,001 DEBUG NetworkRoutingProvider:75 requesting network routing module with routingMode=car;	mode=car
2019-11-18 08:34:12,001 DEBUG NetworkRoutingProvider:75 requesting network routing module with routingMode=walk;	mode=walk
2019-11-18 08:34:12,016 DEBUG NetworkRoutingProvider:75 requesting network routing module with routingMode=bike;	mode=bike
2019-11-18 08:34:12,110 DEBUG NetworkRoutingProvider:75 requesting network routing module with routingMode=car;	mode=car
2019-11-18 08:34:12,110 DEBUG NetworkRoutingProvider:75 requesting network routing module with routingMode=walk;	mode=walk
2019-11-18 08:34:12,110 DEBUG NetworkRoutingProvider:75 requesting network routing module with routingMode=bike;	mode=bike
2019-11-18 08:34:12,204 DEBUG NetworkRoutingProvider:75 requesting network routing module with routingMode=car;	mode=car
2019-11-18 08:34:12,204 DEBUG NetworkRoutingProvider:75 requesting network routing module with routingMode=walk;	mode=walk
2019-11-18 08:34:12,204 DEBUG NetworkRoutingProvider:75 requesting network routing module with routingMode=bike;	mode=bike
2019-11-18 08:34:12,313 DEBUG NetworkRoutingProvider:75 requesting network routing module with routingMode=car;	mode=car
2019-11-18 08:34:12,313 DEBUG NetworkRoutingProvider:75 requesting network routing module with routingMode=walk;	mode=walk
2019-11-18 08:34:12,313 DEBUG NetworkRoutingProvider:75 requesting network routing module with routingMode=bike;	mode=bike
2019-11-18 08:34:12,407 DEBUG NetworkRoutingProvider:75 requesting network routing module with routingMode=car;	mode=car
2019-11-18 08:34:12,407 DEBUG NetworkRoutingProvider:75 requesting network routing module with routingMode=walk;	mode=walk
2019-11-18 08:34:12,407 DEBUG NetworkRoutingProvider:75 requesting network routing module with routingMode=bike;	mode=bike
2019-11-18 08:34:12,516 DEBUG NetworkRoutingProvider:75 requesting network routing module with routingMode=car;	mode=car
2019-11-18 08:34:12,516 DEBUG NetworkRoutingProvider:75 requesting network routing module with routingMode=walk;	mode=walk
2019-11-18 08:34:12,516 DEBUG NetworkRoutingProvider:75 requesting network routing module with routingMode=bike;	mode=bike
2019-11-18 08:34:12,610 DEBUG NetworkRoutingProvider:75 requesting network routing module with routingMode=car;	mode=car
2019-11-18 08:34:12,610 DEBUG NetworkRoutingProvider:75 requesting network routing module with routingMode=walk;	mode=walk
2019-11-18 08:34:12,610 DEBUG NetworkRoutingProvider:75 requesting network routing module with routingMode=bike;	mode=bike
2019-11-18 08:34:12,704 DEBUG NetworkRoutingProvider:75 requesting network routing module with routingMode=car;	mode=car
2019-11-18 08:34:12,704 DEBUG NetworkRoutingProvider:75 requesting network routing module with routingMode=walk;	mode=walk
2019-11-18 08:34:12,719 DEBUG NetworkRoutingProvider:75 requesting network routing module with routingMode=bike;	mode=bike
2019-11-18 08:34:12,813 DEBUG NetworkRoutingProvider:75 requesting network routing module with routingMode=car;	mode=car
2019-11-18 08:34:12,813 DEBUG NetworkRoutingProvider:75 requesting network routing module with routingMode=walk;	mode=walk
2019-11-18 08:34:12,813 DEBUG NetworkRoutingProvider:75 requesting network routing module with routingMode=bike;	mode=bike
2019-11-18 08:34:12,907 DEBUG NetworkRoutingProvider:75 requesting network routing module with routingMode=car;	mode=car
2019-11-18 08:34:12,907 DEBUG NetworkRoutingProvider:75 requesting network routing module with routingMode=walk;	mode=walk
2019-11-18 08:34:12,907 DEBUG NetworkRoutingProvider:75 requesting network routing module with routingMode=bike;	mode=bike
2019-11-18 08:34:13,016  INFO Counter:70 [PersonPrepareForSim] handled person # 1
2019-11-18 08:34:13,016  INFO Counter:70 [PersonPrepareForSim] handled person # 2
2019-11-18 08:34:13,016  INFO Counter:70 [PersonPrepareForSim] handled person # 4
2019-11-18 08:34:13,016  INFO Counter:70 [PersonPrepareForSim] handled person # 8
2019-11-18 08:34:13,016  INFO Counter:70 [PersonPrepareForSim] handled person # 16
2019-11-18 08:34:13,016  INFO Counter:70 [PersonPrepareForSim] handled person # 32
2019-11-18 08:34:13,016  INFO Counter:70 [PersonPrepareForSim] handled person # 64
2019-11-18 08:34:13,016  INFO Counter:70 [PersonPrepareForSim] handled person # 128
2019-11-18 08:34:13,032  INFO Counter:76 [PersonPrepareForSim] handled person # 240
2019-11-18 08:34:13,126  INFO MobsimListenerManager:49 calling addQueueSimulationListener
2019-11-18 08:34:13,126  INFO MobsimListenerManager:53   assigned class org.matsim.core.mobsim.framework.listeners.MobsimListener to interface org.matsim.core.mobsim.framework.listeners.MobsimListener
2019-11-18 08:34:13,126  INFO MobsimListenerManager:53   assigned class org.matsim.core.mobsim.framework.listeners.MobsimListener to interface org.matsim.vis.snapshotwriters.SnapshotWriterManager
2019-11-18 08:34:13,126  INFO MobsimListenerManager:53   assigned class org.matsim.core.mobsim.framework.listeners.MobsimListener to interface org.matsim.core.mobsim.framework.listeners.MobsimBeforeCleanupListener
2019-11-18 08:34:13,126  INFO MobsimListenerManager:53   assigned class org.matsim.core.mobsim.framework.listeners.MobsimListener to interface org.matsim.core.mobsim.framework.listeners.MobsimInitializedListener
2019-11-18 08:34:13,126  INFO MobsimListenerManager:53   assigned class org.matsim.core.mobsim.framework.listeners.MobsimListener to interface org.matsim.core.mobsim.framework.listeners.MobsimAfterSimStepListener
2019-11-18 08:34:14,547  WARN QueueWithBuffer:378 Link 103420 too small: enlarge storage capacity from: 74.22609731173559 Vehicles to: 371.130486558678 Vehicles.  This is not fatal, but modifies the traffic flow dynamics.
2019-11-18 08:34:14,547  WARN QueueWithBuffer:378 Link 103421 too small: enlarge storage capacity from: 74.22609731173559 Vehicles to: 371.130486558678 Vehicles.  This is not fatal, but modifies the traffic flow dynamics.
2019-11-18 08:34:14,563  WARN QueueWithBuffer:378 Link 103422 too small: enlarge storage capacity from: 85.89874962720619 Vehicles to: 429.493748136031 Vehicles.  This is not fatal, but modifies the traffic flow dynamics.
2019-11-18 08:34:14,563  WARN QueueWithBuffer:378 Link 103423 too small: enlarge storage capacity from: 85.89874962720619 Vehicles to: 429.493748136031 Vehicles.  This is not fatal, but modifies the traffic flow dynamics.
2019-11-18 08:34:14,563  WARN QueueWithBuffer:378 Link 103424 too small: enlarge storage capacity from: 75.5745333860178 Vehicles to: 377.8726669300891 Vehicles.  This is not fatal, but modifies the traffic flow dynamics.
2019-11-18 08:34:14,563  WARN QueueWithBuffer:378 Link 103425 too small: enlarge storage capacity from: 75.5745333860178 Vehicles to: 377.8726669300891 Vehicles.  This is not fatal, but modifies the traffic flow dynamics.
2019-11-18 08:34:14,563  WARN QueueWithBuffer:378 Link 103426 too small: enlarge storage capacity from: 68.05329724978756 Vehicles to: 340.2664862489378 Vehicles.  This is not fatal, but modifies the traffic flow dynamics.
2019-11-18 08:34:14,563  WARN QueueWithBuffer:378 Link 103427 too small: enlarge storage capacity from: 68.05329724978756 Vehicles to: 340.2664862489378 Vehicles.  This is not fatal, but modifies the traffic flow dynamics.
2019-11-18 08:34:14,563  WARN QueueWithBuffer:378 Link 103428 too small: enlarge storage capacity from: 69.71473922549748 Vehicles to: 348.5736961274875 Vehicles.  This is not fatal, but modifies the traffic flow dynamics.
2019-11-18 08:34:14,563  WARN QueueWithBuffer:378 Link 103429 too small: enlarge storage capacity from: 69.71473922549748 Vehicles to: 348.5736961274875 Vehicles.  This is not fatal, but modifies the traffic flow dynamics.
2019-11-18 08:34:14,563  WARN QueueWithBuffer:378 Link 103430 too small: enlarge storage capacity from: 75.78185582822537 Vehicles to: 378.9092791411269 Vehicles.  This is not fatal, but modifies the traffic flow dynamics.
2019-11-18 08:34:14,563  WARN QueueWithBuffer:381 Additional warnings of this type are suppressed.
[...]
2019-11-18 08:34:21,126  WARN DefaultTurnAcceptanceLogic:36 Cannot move vehicle 2441739 from link 284243 to link 820864
2019-11-18 08:34:21,251  INFO QNetsimEngine:346 SIMULATION (QNetsimEngine) AT 12:00:00 : #links=64 #nodes=3
2019-11-18 08:34:21,251  INFO QSim:505 SIMULATION (NEW QSim) AT 12:00:00 : #Veh=202 lost=35 simT=26787.0s realT=8s; (s/r): 3348.375
2019-11-18 08:34:21,251  INFO Gbl:58 used RAM: 3559365496B = 3475942kB = 3394MB  free: 4887962760B = 4661MB  total: 8447328256B = 8056MB
2019-11-18 08:34:21,267  WARN DefaultTurnAcceptanceLogic:36 Cannot move vehicle 2830556 from link 277896 to link 617025
2019-11-18 08:34:21,282  WARN DefaultTurnAcceptanceLogic:36 Cannot move vehicle 1331441 from link 562085 to link 203018
2019-11-18 08:34:21,345  WARN DefaultTurnAcceptanceLogic:36 Cannot move vehicle 741903 from link 757170 to link 119980
2019-11-18 08:34:21,376  WARN DefaultTurnAcceptanceLogic:36 Cannot move vehicle 1495014 from link 450738 to link 17127
2019-11-18 08:34:21,548 ERROR VehicularDepartureHandler:80 could not find requested vehicle 2696060 in simulation for agent org.matsim.core.mobsim.qsim.agents.BasicPlanAgentImpl@773b117b with id 4025493 on link 331359 at time 45702.0.
2019-11-18 08:34:21,548 ERROR VehicularDepartureHandler:81 Note that, with AgentSource and if the agent starts on a leg, the vehicle needs to be inserted BEFORE the agent!
2019-11-18 08:34:21,876 ERROR QSim:313 got exception while cleaning up
java.lang.NullPointerException
	at org.matsim.core.mobsim.qsim.qnetsimengine.QueueWithBuffer.clearVehicles(QueueWithBuffer.java:733)
	at org.matsim.core.mobsim.qsim.qnetsimengine.QLinkImpl.clearVehicles(QLinkImpl.java:114)
	at org.matsim.core.mobsim.qsim.qnetsimengine.QNetsimEngine.afterSim(QNetsimEngine.java:260)
	at org.matsim.core.mobsim.qsim.QSim.cleanupSim(QSim.java:310)
	at org.matsim.core.mobsim.qsim.QSim.run(QSim.java:244)
	at org.matsim.core.controler.NewControler.runMobSim(NewControler.java:126)
	at org.matsim.core.controler.AbstractController$8.run(AbstractController.java:197)
	at org.matsim.core.controler.AbstractController.iterationStep(AbstractController.java:229)
	at org.matsim.core.controler.AbstractController.mobsim(AbstractController.java:193)
	at org.matsim.core.controler.AbstractController.iteration(AbstractController.java:144)
	at org.matsim.core.controler.AbstractController.doIterations(AbstractController.java:112)
	at org.matsim.core.controler.AbstractController.access$100(AbstractController.java:28)
	at org.matsim.core.controler.AbstractController$1.run(AbstractController.java:80)
	at org.matsim.core.controler.MatsimRuntimeModifications.run(MatsimRuntimeModifications.java:48)
	at org.matsim.core.controler.MatsimRuntimeModifications.run(MatsimRuntimeModifications.java:31)
	at org.matsim.core.controler.AbstractController.run(AbstractController.java:88)
	at org.matsim.core.controler.NewControler.run(NewControler.java:84)
	at org.matsim.core.controler.Controler.run(Controler.java:240)
	at simulator.Simulator.run(Simulator.java:59)
	at simulator.Simulator.main(Simulator.java:40)
2019-11-18 08:34:21,876 ERROR AbstractController:208 Mobsim did not complete normally! afterMobsimListeners will be called anyway.
java.lang.RuntimeException: java.lang.RuntimeException: could not find requested vehicle 2696060 in simulation for agent org.matsim.core.mobsim.qsim.agents.BasicPlanAgentImpl@773b117b with id 4025493 on link 331359 at time 45702.0. aborting ...
	at org.matsim.core.mobsim.qsim.qnetsimengine.QNetsimEngine.run(QNetsimEngine.java:332)
	at org.matsim.core.mobsim.qsim.qnetsimengine.QNetsimEngine.doSimStep(QNetsimEngine.java:270)
	at org.matsim.core.mobsim.qsim.QSim.doSimStep(QSim.java:363)
	at org.matsim.core.mobsim.qsim.QSim.run(QSim.java:238)
	at org.matsim.core.controler.NewControler.runMobSim(NewControler.java:126)
	at org.matsim.core.controler.AbstractController$8.run(AbstractController.java:197)
	at org.matsim.core.controler.AbstractController.iterationStep(AbstractController.java:229)
	at org.matsim.core.controler.AbstractController.mobsim(AbstractController.java:193)
	at org.matsim.core.controler.AbstractController.iteration(AbstractController.java:144)
	at org.matsim.core.controler.AbstractController.doIterations(AbstractController.java:112)
	at org.matsim.core.controler.AbstractController.access$100(AbstractController.java:28)
	at org.matsim.core.controler.AbstractController$1.run(AbstractController.java:80)
	at org.matsim.core.controler.MatsimRuntimeModifications.run(MatsimRuntimeModifications.java:48)
	at org.matsim.core.controler.MatsimRuntimeModifications.run(MatsimRuntimeModifications.java:31)
	at org.matsim.core.controler.AbstractController.run(AbstractController.java:88)
	at org.matsim.core.controler.NewControler.run(NewControler.java:84)
	at org.matsim.core.controler.Controler.run(Controler.java:240)
	at simulator.Simulator.run(Simulator.java:59)
	at simulator.Simulator.main(Simulator.java:40)
Caused by: java.lang.RuntimeException: could not find requested vehicle 2696060 in simulation for agent org.matsim.core.mobsim.qsim.agents.BasicPlanAgentImpl@773b117b with id 4025493 on link 331359 at time 45702.0. aborting ...
	at org.matsim.core.mobsim.qsim.qnetsimengine.VehicularDepartureHandler.handleCarDeparture(VehicularDepartureHandler.java:83)
	at org.matsim.core.mobsim.qsim.qnetsimengine.VehicularDepartureHandler.handleDeparture(VehicularDepartureHandler.java:56)
	at org.matsim.core.mobsim.qsim.QSim.arrangeAgentDeparture(QSim.java:446)
	at org.matsim.core.mobsim.qsim.QSim.arrangeNextAgentAction(QSim.java:408)
	at org.matsim.core.mobsim.qsim.QSim.access$000(QSim.java:91)
	at org.matsim.core.mobsim.qsim.QSim$1.arrangeNextAgentState(QSim.java:144)
	at org.matsim.core.mobsim.qsim.ActivityEngine.handleActivity(ActivityEngine.java:163)
	at org.matsim.core.mobsim.qsim.QSim.arrangeAgentActivity(QSim.java:427)
	at org.matsim.core.mobsim.qsim.QSim.arrangeNextAgentAction(QSim.java:405)
	at org.matsim.core.mobsim.qsim.QSim.access$000(QSim.java:91)
	at org.matsim.core.mobsim.qsim.QSim$1.arrangeNextAgentState(QSim.java:144)
	at org.matsim.core.mobsim.qsim.qnetsimengine.QNetsimEngine.letVehicleArrive(QNetsimEngine.java:417)
	at org.matsim.core.mobsim.qsim.qnetsimengine.QNetsimEngine.access$200(QNetsimEngine.java:72)
	at org.matsim.core.mobsim.qsim.qnetsimengine.QNetsimEngine$1.letVehicleArrive(QNetsimEngine.java:88)
	at org.matsim.core.mobsim.qsim.qnetsimengine.AbstractQLink.letVehicleArrive(AbstractQLink.java:163)
	at org.matsim.core.mobsim.qsim.qnetsimengine.AbstractQLink$QLinkInternalInterface.letVehicleArrive(AbstractQLink.java:517)
	at org.matsim.core.mobsim.qsim.qnetsimengine.QueueWithBuffer.moveQueueToBuffer(QueueWithBuffer.java:496)
	at org.matsim.core.mobsim.qsim.qnetsimengine.QueueWithBuffer.doSimStep(QueueWithBuffer.java:447)
	at org.matsim.core.mobsim.qsim.qnetsimengine.QLinkImpl.doSimStep(QLinkImpl.java:125)
	at org.matsim.core.mobsim.qsim.qnetsimengine.QNetsimEngineRunner.moveLinks(QNetsimEngineRunner.java:187)
	at org.matsim.core.mobsim.qsim.qnetsimengine.QNetsimEngineRunner.call(QNetsimEngineRunner.java:122)
	at org.matsim.core.mobsim.qsim.qnetsimengine.QNetsimEngineRunner.call(QNetsimEngineRunner.java:37)
	at java.base/java.util.concurrent.FutureTask.run(FutureTask.java:264)
	at java.base/java.util.concurrent.ThreadPoolExecutor.runWorker(ThreadPoolExecutor.java:1128)
	at java.base/java.util.concurrent.ThreadPoolExecutor$Worker.run(ThreadPoolExecutor.java:628)
	at java.base/java.lang.Thread.run(Thread.java:834)
2019-11-18 08:34:21,876  INFO Gbl:191 Thread performance: Thread=class org.matsim.core.events.SimStepParallelEventsManagerImpl$ProcessEventsRunnable0  cpu-time=1.3125sec
2019-11-18 08:34:21,876  INFO AbstractController$9:220 ### ITERATION 0 fires after mobsim event
2019-11-18 08:34:21,876  INFO ControlerListenerManagerImpl:248 calling notifyAfterMobsim on org.matsim.analysis.LegTimesControlerListener
2019-11-18 08:34:21,891  INFO LegTimesControlerListener:50 [0] average trip (probably: leg) duration is: 4551 seconds = 01:15:51
2019-11-18 08:34:21,891  INFO ControlerListenerManagerImpl:248 calling notifyAfterMobsim on org.matsim.core.scoring.EventsToActivities$1
2019-11-18 08:34:21,891  WARN CharyparNagelActivityScoring:252 The first and the last activity do not have the same type. 
2019-11-18 08:34:21,891  WARN CharyparNagelActivityScoring:253 Will score the first activity from midnight to its end, and the last activity from its start to midnight.
2019-11-18 08:34:21,891  WARN CharyparNagelActivityScoring:254 Because of the nonlinear function, this is not the same as scoring from start to end.
2019-11-18 08:34:21,891  WARN CharyparNagelActivityScoring:255 first activity: [type=home][coord=null][linkId=436504][startTime=undefined][endTime=07:58:42][duration=undefined][facilityId=null]
2019-11-18 08:34:21,891  WARN CharyparNagelActivityScoring:256 last activity: [type=school][coord=null][linkId=511991][startTime=08:10:08][endTime=undefined][duration=undefined][facilityId=null]
2019-11-18 08:34:21,891  WARN CharyparNagelActivityScoring:257 This may also happen when plans are not completed when the simulation ends.
2019-11-18 08:34:21,891  WARN CharyparNagelActivityScoring:259 Additional warnings of this type are suppressed.
2019-11-18 08:34:21,907  INFO ControlerListenerManagerImpl:251 [it.0] all ControlerAfterMobsimListeners called.
2019-11-18 08:34:21,907 ERROR MatsimRuntimeModifications:54 Getting uncaught Exception in Thread main
java.lang.RuntimeException: java.lang.RuntimeException: could not find requested vehicle 2696060 in simulation for agent org.matsim.core.mobsim.qsim.agents.BasicPlanAgentImpl@773b117b with id 4025493 on link 331359 at time 45702.0. aborting ...
	at org.matsim.core.mobsim.qsim.qnetsimengine.QNetsimEngine.run(QNetsimEngine.java:332)
	at org.matsim.core.mobsim.qsim.qnetsimengine.QNetsimEngine.doSimStep(QNetsimEngine.java:270)
	at org.matsim.core.mobsim.qsim.QSim.doSimStep(QSim.java:363)
	at org.matsim.core.mobsim.qsim.QSim.run(QSim.java:238)
	at org.matsim.core.controler.NewControler.runMobSim(NewControler.java:126)
	at org.matsim.core.controler.AbstractController$8.run(AbstractController.java:197)
	at org.matsim.core.controler.AbstractController.iterationStep(AbstractController.java:229)
	at org.matsim.core.controler.AbstractController.mobsim(AbstractController.java:193)
	at org.matsim.core.controler.AbstractController.iteration(AbstractController.java:144)
	at org.matsim.core.controler.AbstractController.doIterations(AbstractController.java:112)
	at org.matsim.core.controler.AbstractController.access$100(AbstractController.java:28)
	at org.matsim.core.controler.AbstractController$1.run(AbstractController.java:80)
	at org.matsim.core.controler.MatsimRuntimeModifications.run(MatsimRuntimeModifications.java:48)
	at org.matsim.core.controler.MatsimRuntimeModifications.run(MatsimRuntimeModifications.java:31)
	at org.matsim.core.controler.AbstractController.run(AbstractController.java:88)
	at org.matsim.core.controler.NewControler.run(NewControler.java:84)
	at org.matsim.core.controler.Controler.run(Controler.java:240)
	at simulator.Simulator.run(Simulator.java:59)
	at simulator.Simulator.main(Simulator.java:40)
Caused by: java.lang.RuntimeException: could not find requested vehicle 2696060 in simulation for agent org.matsim.core.mobsim.qsim.agents.BasicPlanAgentImpl@773b117b with id 4025493 on link 331359 at time 45702.0. aborting ...
	at org.matsim.core.mobsim.qsim.qnetsimengine.VehicularDepartureHandler.handleCarDeparture(VehicularDepartureHandler.java:83)
	at org.matsim.core.mobsim.qsim.qnetsimengine.VehicularDepartureHandler.handleDeparture(VehicularDepartureHandler.java:56)
	at org.matsim.core.mobsim.qsim.QSim.arrangeAgentDeparture(QSim.java:446)
	at org.matsim.core.mobsim.qsim.QSim.arrangeNextAgentAction(QSim.java:408)
	at org.matsim.core.mobsim.qsim.QSim.access$000(QSim.java:91)
	at org.matsim.core.mobsim.qsim.QSim$1.arrangeNextAgentState(QSim.java:144)
	at org.matsim.core.mobsim.qsim.ActivityEngine.handleActivity(ActivityEngine.java:163)
	at org.matsim.core.mobsim.qsim.QSim.arrangeAgentActivity(QSim.java:427)
	at org.matsim.core.mobsim.qsim.QSim.arrangeNextAgentAction(QSim.java:405)
	at org.matsim.core.mobsim.qsim.QSim.access$000(QSim.java:91)
	at org.matsim.core.mobsim.qsim.QSim$1.arrangeNextAgentState(QSim.java:144)
	at org.matsim.core.mobsim.qsim.qnetsimengine.QNetsimEngine.letVehicleArrive(QNetsimEngine.java:417)
	at org.matsim.core.mobsim.qsim.qnetsimengine.QNetsimEngine.access$200(QNetsimEngine.java:72)
	at org.matsim.core.mobsim.qsim.qnetsimengine.QNetsimEngine$1.letVehicleArrive(QNetsimEngine.java:88)
	at org.matsim.core.mobsim.qsim.qnetsimengine.AbstractQLink.letVehicleArrive(AbstractQLink.java:163)
	at org.matsim.core.mobsim.qsim.qnetsimengine.AbstractQLink$QLinkInternalInterface.letVehicleArrive(AbstractQLink.java:517)
	at org.matsim.core.mobsim.qsim.qnetsimengine.QueueWithBuffer.moveQueueToBuffer(QueueWithBuffer.java:496)
	at org.matsim.core.mobsim.qsim.qnetsimengine.QueueWithBuffer.doSimStep(QueueWithBuffer.java:447)
	at org.matsim.core.mobsim.qsim.qnetsimengine.QLinkImpl.doSimStep(QLinkImpl.java:125)
	at org.matsim.core.mobsim.qsim.qnetsimengine.QNetsimEngineRunner.moveLinks(QNetsimEngineRunner.java:187)
	at org.matsim.core.mobsim.qsim.qnetsimengine.QNetsimEngineRunner.call(QNetsimEngineRunner.java:122)
	at org.matsim.core.mobsim.qsim.qnetsimengine.QNetsimEngineRunner.call(QNetsimEngineRunner.java:37)
	at java.base/java.util.concurrent.FutureTask.run(FutureTask.java:264)
	at java.base/java.util.concurrent.ThreadPoolExecutor.runWorker(ThreadPoolExecutor.java:1128)
	at java.base/java.util.concurrent.ThreadPoolExecutor$Worker.run(ThreadPoolExecutor.java:628)
	at java.base/java.lang.Thread.run(Thread.java:834)
2019-11-18 08:34:21,907  INFO MatsimRuntimeModifications:58 S H U T D O W N   ---   start shutdown.
2019-11-18 08:34:21,907 ERROR MatsimRuntimeModifications:60 ERROR --- This is an unexpected shutdown!
2019-11-18 08:34:21,907 ERROR MatsimRuntimeModifications:63 Shutdown possibly caused by the following Exception:
java.lang.RuntimeException: java.lang.RuntimeException: could not find requested vehicle 2696060 in simulation for agent org.matsim.core.mobsim.qsim.agents.BasicPlanAgentImpl@773b117b with id 4025493 on link 331359 at time 45702.0. aborting ...
	at org.matsim.core.mobsim.qsim.qnetsimengine.QNetsimEngine.run(QNetsimEngine.java:332)
	at org.matsim.core.mobsim.qsim.qnetsimengine.QNetsimEngine.doSimStep(QNetsimEngine.java:270)
	at org.matsim.core.mobsim.qsim.QSim.doSimStep(QSim.java:363)
	at org.matsim.core.mobsim.qsim.QSim.run(QSim.java:238)
	at org.matsim.core.controler.NewControler.runMobSim(NewControler.java:126)
	at org.matsim.core.controler.AbstractController$8.run(AbstractController.java:197)
	at org.matsim.core.controler.AbstractController.iterationStep(AbstractController.java:229)
	at org.matsim.core.controler.AbstractController.mobsim(AbstractController.java:193)
	at org.matsim.core.controler.AbstractController.iteration(AbstractController.java:144)
	at org.matsim.core.controler.AbstractController.doIterations(AbstractController.java:112)
	at org.matsim.core.controler.AbstractController.access$100(AbstractController.java:28)
	at org.matsim.core.controler.AbstractController$1.run(AbstractController.java:80)
	at org.matsim.core.controler.MatsimRuntimeModifications.run(MatsimRuntimeModifications.java:48)
	at org.matsim.core.controler.MatsimRuntimeModifications.run(MatsimRuntimeModifications.java:31)
	at org.matsim.core.controler.AbstractController.run(AbstractController.java:88)
	at org.matsim.core.controler.NewControler.run(NewControler.java:84)
	at org.matsim.core.controler.Controler.run(Controler.java:240)
	at simulator.Simulator.run(Simulator.java:59)
	at simulator.Simulator.main(Simulator.java:40)
Caused by: java.lang.RuntimeException: could not find requested vehicle 2696060 in simulation for agent org.matsim.core.mobsim.qsim.agents.BasicPlanAgentImpl@773b117b with id 4025493 on link 331359 at time 45702.0. aborting ...
	at org.matsim.core.mobsim.qsim.qnetsimengine.VehicularDepartureHandler.handleCarDeparture(VehicularDepartureHandler.java:83)
	at org.matsim.core.mobsim.qsim.qnetsimengine.VehicularDepartureHandler.handleDeparture(VehicularDepartureHandler.java:56)
	at org.matsim.core.mobsim.qsim.QSim.arrangeAgentDeparture(QSim.java:446)
	at org.matsim.core.mobsim.qsim.QSim.arrangeNextAgentAction(QSim.java:408)
	at org.matsim.core.mobsim.qsim.QSim.access$000(QSim.java:91)
	at org.matsim.core.mobsim.qsim.QSim$1.arrangeNextAgentState(QSim.java:144)
	at org.matsim.core.mobsim.qsim.ActivityEngine.handleActivity(ActivityEngine.java:163)
	at org.matsim.core.mobsim.qsim.QSim.arrangeAgentActivity(QSim.java:427)
	at org.matsim.core.mobsim.qsim.QSim.arrangeNextAgentAction(QSim.java:405)
	at org.matsim.core.mobsim.qsim.QSim.access$000(QSim.java:91)
	at org.matsim.core.mobsim.qsim.QSim$1.arrangeNextAgentState(QSim.java:144)
	at org.matsim.core.mobsim.qsim.qnetsimengine.QNetsimEngine.letVehicleArrive(QNetsimEngine.java:417)
	at org.matsim.core.mobsim.qsim.qnetsimengine.QNetsimEngine.access$200(QNetsimEngine.java:72)
	at org.matsim.core.mobsim.qsim.qnetsimengine.QNetsimEngine$1.letVehicleArrive(QNetsimEngine.java:88)
	at org.matsim.core.mobsim.qsim.qnetsimengine.AbstractQLink.letVehicleArrive(AbstractQLink.java:163)
	at org.matsim.core.mobsim.qsim.qnetsimengine.AbstractQLink$QLinkInternalInterface.letVehicleArrive(AbstractQLink.java:517)
	at org.matsim.core.mobsim.qsim.qnetsimengine.QueueWithBuffer.moveQueueToBuffer(QueueWithBuffer.java:496)
	at org.matsim.core.mobsim.qsim.qnetsimengine.QueueWithBuffer.doSimStep(QueueWithBuffer.java:447)
	at org.matsim.core.mobsim.qsim.qnetsimengine.QLinkImpl.doSimStep(QLinkImpl.java:125)
	at org.matsim.core.mobsim.qsim.qnetsimengine.QNetsimEngineRunner.moveLinks(QNetsimEngineRunner.java:187)
	at org.matsim.core.mobsim.qsim.qnetsimengine.QNetsimEngineRunner.call(QNetsimEngineRunner.java:122)
	at org.matsim.core.mobsim.qsim.qnetsimengine.QNetsimEngineRunner.call(QNetsimEngineRunner.java:37)
	at java.base/java.util.concurrent.FutureTask.run(FutureTask.java:264)
	at java.base/java.util.concurrent.ThreadPoolExecutor.runWorker(ThreadPoolExecutor.java:1128)
	at java.base/java.util.concurrent.ThreadPoolExecutor$Worker.run(ThreadPoolExecutor.java:628)
	at java.base/java.lang.Thread.run(Thread.java:834)
2019-11-18 08:34:21,907  INFO ControlerListenerManagerImpl:121 calling notifyShutdown on org.matsim.core.controler.corelisteners.EventsHandlingImpl
2019-11-18 08:34:21,923  INFO ControlerListenerManagerImpl:121 calling notifyShutdown on org.matsim.core.controler.corelisteners.DumpDataAtEndImpl
2019-11-18 08:34:21,923  INFO ControlerListenerManagerImpl:126 calling notifyShutdown on org.matsim.analysis.ModeStatsControlerListener
2019-11-18 08:34:21,923  INFO ControlerListenerManagerImpl:126 calling notifyShutdown on org.matsim.analysis.ScoreStatsControlerListener
2019-11-18 08:34:21,923  INFO ControlerListenerManagerImpl:126 calling notifyShutdown on org.matsim.analysis.TravelDistanceStatsControlerListener
2019-11-18 08:34:21,923  INFO ControlerListenerManagerImpl:129 all ControlerShutdownListeners called.
2019-11-18 08:34:21,923 ERROR MatsimRuntimeModifications:78 ERROR --- MATSim unexpectedly terminated. Please check the output or the logfile with warnings and errors for hints.
2019-11-18 08:34:21,938 ERROR MatsimRuntimeModifications:79 ERROR --- results should not be used for further analysis.
2019-11-18 08:34:21,938  INFO MatsimRuntimeModifications:81 S H U T D O W N   ---   shutdown completed.
2019-11-18 08:34:21,938 ERROR MatsimRuntimeModifications:83 ERROR --- This was an unexpected shutdown! See the log file for a possible reason.
